/*--------------------------------*- C++ -*----------------------------------*\
| =========                 |                                                 |
| \\      /  F ield         | OpenFOAM: The Open Source CFD Toolbox           |
|  \\    /   O peration     | Version:  1.7                                   |
|   \\  /    A nd           | Web:      http://www.OpenFOAM.com               |
|    \\/     M anipulation  |                                                 |
\*---------------------------------------------------------------------------*/
FoamFile
{
    version     2.0;
    format      ascii;
    class       dictionary;
    object      decomposeParDict;
}

// * * * * * * * * * * * * * * * * * * * * * * * * * * * * * * * * * * * * * //

numberOfSubdomains 1;

method          hierarchical;
// method          metis;
// method          ptscotch;

simpleCoeffs
{
    n               (4 1 1);
    delta           0.001;
}

hierarchicalCoeffs
{
    n               (1 1 1);
    delta           0.001;
    order           xyz;
}

manualCoeffs
{
    dataFile        "cellDecomposition";
}

metisCoeffs
{
    //n                   (5 1 1);
    //cellWeightsFile     "constant/cellWeightsFile";
}


// ************************************************************************* //
