/*--------------------------------*- C++ -*----------------------------------*\
| =========                 |                                                 |
| \\      /  F ield         | OpenFOAM: The Open Source CFD Toolbox           |
|  \\    /   O peration     | Version:  1.7.0                                 |
|   \\  /    A nd           | Web:      www.OpenFOAM.com                      |
|    \\/     M anipulation  |                                                 |
\*---------------------------------------------------------------------------*/
FoamFile
{
    version     2.0;
    format      ascii;
    class       volScalarField;
    object      k;
}
// * * * * * * * * * * * * * * * * * * * * * * * * * * * * * * * * * * * * * //

dimensions      [0 2 -2 0 0 0 0];

internalField   uniform 2e-05;

boundaryField
{
    inlet
    {
        type            fixedValue;
        value           uniform 2e-05;
    }

    outlet
    {
        type            inletOutlet;
        inletValue      uniform 2e-05;
        value           uniform 2e-05;
    }

    upperWall
    {
        type            zeroGradient;
        value           uniform 2e-05;
    }

    lowerWall
    {
        type            zeroGradient;
        value           uniform 2e-05;
    }

    frontAndBack
    {
        type            cyclic;
    }
}

// ************************************************************************* //
