/*--------------------------------*- C++ -*----------------------------------*\
| =========                 |                                                 |
| \\      /  F ield         | OpenFOAM: The Open Source CFD Toolbox           |
|  \\    /   O peration     | Version:  1.6                                   |
|   \\  /    A nd           | Web:      http://www.OpenFOAM.org               |
|    \\/     M anipulation  |                                                 |
\*---------------------------------------------------------------------------*/
FoamFile
{
    version     2.0;
    format      ascii;
    class       dictionary;
    object      blockMeshDict;
}
// * * * * * * * * * * * * * * * * * * * * * * * * * * * * * * * * * * * * * //

convertToMeters 1.0;

vertices
(

    (0      0.0     0)
    (0.5    0.0     0)
    (0.5    0.0     2.50)
    (0      0.0     2.50)
    (0      0.1     0)
    (0.5    0.1     0)
    (0.5    0.1     2.50)
    (0      0.1     2.50)

);

//          7 ---------- 6
//         /|           /|
//        / |          / |   z
//       3 ---------- 2  |   ^ 
//       |  |         |  |   |   y
//       |  4 --------|- 5   |  /
//       | /          | /    | /
//       |/           |/     |/
//       0 ---------- 1      -----> x
blocks
(
    hex (0 1 5 4 3 2 6 7) (25 1 125) simpleGrading (1 1 1)
);

edges           
(
);

patches
(
    patch top
    (
        (3 2 6 7)
    )

    patch bottom
    (
        (1 0 4 5)
    )

    wall walls
    (
        (2 1 5 6)
        (0 3 7 4)
    )

    empty frontBack
    (
        (0 1 2 3)
        (7 6 5 4)
    )
);

// ************************************************************************* //
