/*--------------------------------*- C++ -*----------------------------------*\
| =========                 |                                                 |
| \\      /  F ield         | OpenFOAM: The Open Source CFD Toolbox           |
|  \\    /   O peration     | Version:  1.6                                   |
|   \\  /    A nd           | Web:      www.OpenFOAM.org                      |
|    \\/     M anipulation  |                                                 |
\*---------------------------------------------------------------------------*/
FoamFile
{
    version     2.0;
    format      ascii;
    class       dictionary;
    location    "constant";
    object      dsmcProperties;
}
// * * * * * * * * * * * * * * * * * * * * * * * * * * * * * * * * * * * * * //


// General Properties
// ~~~~~~~~~~~~~~~~~~

nEquivalentParticles            1.2e12;


// Wall Interaction Model
// ~~~~~~~~~~~~~~~~~~~~~~

//WallInteractionModel            SpecularReflection;
WallInteractionModel            MaxwellianThermal;

SpecularReflectionCoeffs {}

MaxwellianThermalCoeffs {}


// Binary Collision Model
// ~~~~~~~~~~~~~~~~~~~~~~

//BinaryCollisionModel            VariableHardSphere;
BinaryCollisionModel            LarsenBorgnakkeVariableHardSphere;

VariableHardSphereCoeffs
{
    Tref        273;
}

LarsenBorgnakkeVariableHardSphereCoeffs
{
    Tref                        273;
    relaxationCollisionNumber   5.0;
}


// Inflow Boundary Model
// ~~~~~~~~~~~~~~~~~~~~~

InflowBoundaryModel             FreeStream;
//InflowBoundaryModel             NoInflow;

NoInflowCoeffs {}

FreeStreamCoeffs
{
    numberDensities
    {
        Ar      1.0e20;
    };
}


// Molecular species
// ~~~~~~~~~~~~~~~~~

typeIdList                      (Ar);

moleculeProperties
{
    Ar
    {
        mass                            66.3e-27;
        diameter                        4.17e-10;
        internalDegreesOfFreedom        0;
        viscosityCoefficient            2.117e-5;
        omega                           0.81;
    }
}

// ************************************************************************* //
