/*--------------------------------*- C++ -*----------------------------------*\
| =========                 |                                                 |
| \\      /  F ield         | OpenFOAM: The Open Source CFD Toolbox           |
|  \\    /   O peration     | Version:  1.7.1                                 |
|   \\  /    A nd           | Web:      www.OpenFOAM.com                      |
|    \\/     M anipulation  |                                                 |
\*---------------------------------------------------------------------------*/
FoamFile
{
    version     2.0;
    format      ascii;
    class       dictionary;
    location    "system";
    object      fvSchemes;
}
// * * * * * * * * * * * * * * * * * * * * * * * * * * * * * * * * * * * * * //

ddtSchemes
{
    default         Euler;
}

gradSchemes
{
    default         Gauss linear;
    grad(p)         Gauss linear;
}

divSchemes
{
    default         none;
    div(phi,U)      Gauss upwind;
    div(phid,p)     Gauss upwind;
    div(phiU,p)     Gauss linear;
    div(phi,k)      Gauss upwind;
    div(phi,epsilon) Gauss upwind;
    div(phi,R)      Gauss upwind;
    div(R)          Gauss linear;
    div(phiXi,Xi)   Gauss upwind;
    div(phiXi,Su)   Gauss upwind;
    div(phiSt,b)    Gauss limitedLinear01 1;
    div(phi,ft_b_h_hu) Gauss multivariateSelection { fu limitedLinear01 1 ; ft limitedLinear01 1 ; b limitedLinear01 1 ; h limitedLinear 1 ; hu limitedLinear 1 ; };
    div(U)          Gauss linear;
    div((Su*grad(b))) Gauss linear;
    div((U+((Su*Xi)*grad(b)))) Gauss linear;
    div((muEff*dev2(grad(U).T()))) Gauss linear;
}

laplacianSchemes
{
    default         none;
    laplacian(muEff,U) Gauss linear corrected;
    laplacian(DkEff,k) Gauss linear limited 0.5;
    laplacian(DepsilonEff,epsilon) Gauss linear limited 0.5;
    laplacian(DREff,R) Gauss linear limited 0.5;
    laplacian((rho*(1|A(U))),p) Gauss linear limited 0.5;
    laplacian(muEff,b) Gauss linear limited 0.5;
    laplacian(muEff,ft) Gauss linear limited 0.5;
    laplacian(alphaEff,h) Gauss linear limited 0.5;
    laplacian(alphaEff,hu) Gauss linear limited 0.5;
    laplacian(alphaEff,ft) Gauss linear limited 0.5;
    laplacian(alphaEff,b) Gauss linear limited 0.5;
}

interpolationSchemes
{
    default         linear;
}

snGradSchemes
{
    default         limited 0.5;
}

fluxRequired
{
    default         no;
    p               ;
}


// ************************************************************************* //
