/*--------------------------------*- C++ -*----------------------------------*\
| =========                 |                                                 |
| \\      /  F ield         | OpenFOAM: The Open Source CFD Toolbox           |
|  \\    /   O peration     | Version:  1.6                                   |
|   \\  /    A nd           | Web:      http://www.OpenFOAM.org               |
|    \\/     M anipulation  |                                                 |
\*---------------------------------------------------------------------------*/
FoamFile
{
    version     2.0;
    format      ascii;
    class       vectorField;
    location    "constant";
    object      reactingCloud1Positions;
}
// * * * * * * * * * * * * * * * * * * * * * * * * * * * * * * * * * * * * * //
(
(0.002 0.002 0.00005)
(0.004 0.002 0.00005)
(0.006 0.002 0.00005)
(0.008 0.002 0.00005)
(0.010 0.002 0.00005)
(0.002 0.004 0.00005)
(0.004 0.004 0.00005)
(0.006 0.004 0.00005)
(0.008 0.004 0.00005)
(0.010 0.004 0.00005)
(0.002 0.006 0.00005)
(0.004 0.006 0.00005)
(0.006 0.006 0.00005)
(0.008 0.006 0.00005)
(0.010 0.006 0.00005)
(0.002 0.008 0.00005)
(0.004 0.008 0.00005)
(0.006 0.008 0.00005)
(0.008 0.008 0.00005)
(0.010 0.008 0.00005)
(0.002 0.010 0.00005)
(0.004 0.010 0.00005)
(0.006 0.010 0.00005)
(0.008 0.010 0.00005)
(0.010 0.010 0.00005)
)
// ************************************************************************* //
