/*--------------------------------*- C++ -*----------------------------------*\
| =========                 |                                                 |
| \\      /  F ield         | OpenFOAM: The Open Source CFD Toolbox           |
|  \\    /   O peration     | Version:  1.7.0                                 |
|   \\  /    A nd           | Web:      www.OpenFOAM.com                      |
|    \\/     M anipulation  |                                                 |
\*---------------------------------------------------------------------------*/
FoamFile
{
    version     2.0;
    format      ascii;
    class       dictionary;
    location    "constant";
    object      thermophysicalProperties;
}
// * * * * * * * * * * * * * * * * * * * * * * * * * * * * * * * * * * * * * //

thermoType      hsPsiMixtureThermo<reactingMixture<gasThermoPhysics>>;

chemistryReader foamChemistryReader;

foamChemistryFile "$FOAM_CASE/chemkin/foam.inp";

foamChemistryThermoFile "$FOAM_CASE/chemkin/foam.dat";

liquidComponents
(
    H2O
);

solidComponents
();

inertSpecie     N2;

H2O             H2O defaultCoeffs;


// ************************************************************************* //
