/*--------------------------------*- C++ -*----------------------------------*\
| =========                 |                                                 |
| \\      /  F ield         | OpenFOAM: The Open Source CFD Toolbox           |
|  \\    /   O peration     | Version:  1.6                                   |
|   \\  /    A nd           | Web:      www.OpenFOAM.org                      |
|    \\/     M anipulation  |                                                 |
\*---------------------------------------------------------------------------*/
FoamFile
{
    version     2.0;
    format      ascii;
    class       dictionary;
    location    "system";
    object      controlDict;
}
// * * * * * * * * * * * * * * * * * * * * * * * * * * * * * * * * * * * * * //

application     icoFoam;

startFrom       startTime;

startTime       0;

stopAt          endTime;

endTime         0.5;

deltaT          0.005;

writeControl    timeStep;

writeInterval   20;

purgeWrite      0;

writeFormat     ascii;

writePrecision  6;

writeCompression uncompressed;

timeFormat      general;

timePrecision   6;

runTimeModifiable yes;

functions
(
    faceObj1
    {
        type            faceSource;
        functionObjectLibs ("libfieldFunctionObjects.so");
        enabled         true;
        outputControl   outputTime;
        log             true;
        valueOutput     true;
        source          patch;
        sourceName      movingWall;
//        source          faceZone;
//        sourceName      f0;
        operation       areaAverage;
        fields
        (
            p
            phi
            U
        );
    }

    faceObj2
    {
        type            faceSource;
        functionObjectLibs ("libfieldFunctionObjects.so");
        enabled         true;
        outputControl   outputTime;
        log             true;
        valueOutput     true;
        source          faceZone;
        sourceName      f0;
        operation       sum;
        fields
        (
            phi
        );
    }

    cellObj1
    {
        type            cellSource;
        functionObjectLibs ("libfieldFunctionObjects.so");
        enabled         true;
        outputControl   outputTime;
        log             true;
        valueOutput     true;
        source          cellZone;
        sourceName      c0;
        operation       volAverage;
        fields
        (
            p
            U
        );
    }
);


// ************************************************************************* //
