/*--------------------------------*- C++ -*----------------------------------*\
| =========                 |                                                 |
| \\      /  F ield         | OpenFOAM: The Open Source CFD Toolbox           |
|  \\    /   O peration     | Version:  1.6                                   |
|   \\  /    A nd           | Web:      www.OpenFOAM.org                      |
|    \\/     M anipulation  |                                                 |
\*---------------------------------------------------------------------------*/
FoamFile
{
    version     2.0;
    format      ascii;
    class       dictionary;
    location    "constant";
    object      transportProperties;
}
// * * * * * * * * * * * * * * * * * * * * * * * * * * * * * * * * * * * * * //

phase1
{
    transportModel  Newtonian;
    nu              nu [ 0 2 -1 0 0 0 0 ] 1e-06;
    rho             rho [ 1 -3 0 0 0 0 0 ] 1000;
    rho0            rho0 [ 1 -3 0 0 0 0 0 ] 1000;
    psi             psi [ 0 -2 2 0 0 ] 1e-05;
}

phase2
{
    transportModel  Newtonian;
    nu              nu [ 0 2 -1 0 0 0 0 ] 1.589e-05;
    rho             rho [ 1 -3 0 0 0 0 0 ] 1;
    rho0            rho0 [ 1 -3 0 0 0 0 0 ] 0;
    psi             psi [ 0 -2 2 0 0 ] 1e-05;
}

pMin            pMin [ 1 -1 -2 0 0 0 0 ] 10000;

sigma           sigma [ 1 0 -2 0 0 0 0 ] 0.07;


// ************************************************************************* //
