/*--------------------------------*- C++ -*----------------------------------*\
| =========                 |                                                 |
| \\      /  F ield         | OpenFOAM: The Open Source CFD Toolbox           |
|  \\    /   O peration     | Version:  1.7.1                                 |
|   \\  /    A nd           | Web:      www.OpenFOAM.com                      |
|    \\/     M anipulation  |                                                 |
\*---------------------------------------------------------------------------*/
FoamFile
{
    version     2.0;
    format      ascii;
    class       volScalarField;
    location    "0";
    object      G;
}
// * * * * * * * * * * * * * * * * * * * * * * * * * * * * * * * * * * * * * //

dimensions      [1 0 -3 0 0 0 0];

internalField   uniform 0;

boundaryField
{
    walls
    {
        type            MarshakRadiation;
        T               T;
        emissivity      1;
        value           uniform 0;
    }
    inlet
    {
        type            MarshakRadiation;
        T               T;
        emissivity      1;
        value           uniform 0;
    }
    outlet
    {
        type            zeroGradient;
    }
    cycLeft
    {
        type            cyclic;
        value           uniform 0;
    }
    cycRight
    {
        type            cyclic;
        value           uniform 0;
    }
    frontAndBack
    {
        type            empty;
    }
}


// ************************************************************************* //
