/*--------------------------------*- C++ -*----------------------------------*\
| =========                 |                                                 |
| \\      /  F ield         | OpenFOAM: The Open Source CFD Toolbox           |
|  \\    /   O peration     | Version:  1.6                                   |
|   \\  /    A nd           | Web:      http://www.OpenFOAM.org               |
|    \\/     M anipulation  |                                                 |
\*---------------------------------------------------------------------------*/
FoamFile
{
    version     2.0;
    format      ascii;
    class       volScalarField;
    object      p;
}
// * * * * * * * * * * * * * * * * * * * * * * * * * * * * * * * * * * * * * //

dimensions      [1 -1 -2 0 0 0 0];

internalField   uniform 1;

boundaryField
{
    inlet           
    {
        type            fixedValue;
        value           uniform 1;
    }

    outlet          
    {
        type            zeroGradient;
    }

    bottom          
    {
        type            symmetryPlane;
    }

    top             
    {
        type            symmetryPlane;
    }

    obstacle
    {
        type            inviscidWallP;
        fluxFraction    1.0;
        value           uniform 1;
    }

    defaultFaces    
    {
        type            empty;
    }
}

// ************************************************************************* //
