/*--------------------------------*- C++ -*----------------------------------*\
| =========                 |                                                 |
| \\      /  F ield         | OpenFOAM: The Open Source CFD Toolbox           |
|  \\    /   O peration     | Version:  1.7.1                                 |
|   \\  /    A nd           | Web:      www.OpenFOAM.com                      |
|    \\/     M anipulation  |                                                 |
\*---------------------------------------------------------------------------*/
FoamFile
{
    version     2.0;
    format      ascii;
    class       volTensorField;
    object      B;
}
// * * * * * * * * * * * * * * * * * * * * * * * * * * * * * * * * * * * * * //

dimensions      [0 2 -2 0 0 0 0];

internalField   uniform (0 0 0 0 0 0 0 0 0);

boundaryField
{
    inlet           
    {
        type            directMapped;
        value           uniform (0 0 0 0 0 0 0 0 0);
        setAverage      false;
        average         (0 0 0 0 0 0 0 0 0);
    }

    outlet          
    {
        type            inletOutlet;
        inletValue      uniform (0 0 0 0 0 0 0 0 0);
        value           uniform (0 0 0 0 0 0 0 0 0);
    }

    upperWall       
    {
        type            zeroGradient;
    }

    lowerWall       
    {
        type            zeroGradient;
    }

    frontAndBack    
    {
        type            empty;
    }
}

// ************************************************************************* //
