/*--------------------------------*- C++ -*----------------------------------*\
| =========                 |                                                 |
| \\      /  F ield         | OpenFOAM: The Open Source CFD Toolbox           |
|  \\    /   O peration     | Version:  1.6                                   |
|   \\  /    A nd           | Web:      http://www.OpenFOAM.org               |
|    \\/     M anipulation  |                                                 |
\*---------------------------------------------------------------------------*/
FoamFile
{
    version     2.0;
    format      ascii;
    class       dictionary;
    object      changeDictionaryDict;
}
// * * * * * * * * * * * * * * * * * * * * * * * * * * * * * * * * * * * * * //

dictionaryReplacement
{
    U
    {
        internalField   uniform (0.01 0 0);

        boundaryField
        {
            ".*"
            {
                type            fixedValue;
                value           uniform (0 0 0);
            }
            minX
            {
                type            fixedValue;
                value           uniform ( 0.01 0 0 );
            }
            maxX
            {
                type            inletOutlet;
                inletValue      uniform ( 0 0 0 );
                value           uniform ( 0 0 0 );
            }
        }
    }

    T
    {
        internalField   uniform 300;

        boundaryField
        {
            ".*"
            {
                type            zeroGradient;
                value           $internalField;
            }

            minX
            {
                type            fixedValue;
                value           $internalField;
            }
            maxX
            {
                type            inletOutlet;
                inletValue      $internalField;
                value           $internalField;
            }

            "topAir_to_.*"
            {
                type            solidWallMixedTemperatureCoupled;
                neighbourFieldName T;
                K               K;
                value           $internalField;
            }
        }
    }

    epsilon
    {
        internalField   uniform 0.01;

        boundaryField
        {
            ".*"
            {
                type            compressible::epsilonWallFunction;
                value           $internalField;
            }

            minX
            {
                type            fixedValue;
                value           $internalField;
            }
            maxX
            {
                type            inletOutlet;
                inletValue      $internalField;
                value           $internalField;
            }
        }
    }

    k
    {
        internalField   uniform 0.1;

        boundaryField
        {
            ".*"
            {
                type            compressible::kqRWallFunction;
                value           $internalField;
            }

            minX
            {
                type            fixedValue;
                value           $internalField;
            }
            maxX
            {
                type            inletOutlet;
                inletValue      $internalField;
                value           $internalField;
            }
        }
    }

    p
    {
        internalField   uniform 100000;

        boundaryField
        {
            ".*"
            {
                type            buoyantPressure;
                value           1e5;
            }

            maxX
            {
                type            waveTransmissive;
                gamma           1.4;
                fieldInf        100000;
                lInf            0.4;
                value           $internalField;
            }
        }
    }
}

// ************************************************************************* //
