/*--------------------------------*- C++ -*----------------------------------*\
| =========                 |                                                 |
| \\      /  F ield         | OpenFOAM: The Open Source CFD Toolbox           |
|  \\    /   O peration     | Version:  1.6                                   |
|   \\  /    A nd           | Web:      http://www.OpenFOAM.org               |
|    \\/     M anipulation  |                                                 |
\*---------------------------------------------------------------------------*/
FoamFile
{
    version     2.0;
    format      ascii;
    class       dictionary;
    object      blockMeshDict;
}
// * * * * * * * * * * * * * * * * * * * * * * * * * * * * * * * * * * * * * //

convertToMeters 200;

vertices        
(
    (0 -0.1 0)
    (1 -0.1 0)
    (1 0.1 0)
    (0 0.1 0)
    (0 -0.1 0.1)
    (1 -0.1 0.1)
    (1 0.1 0.1)
    (0 0.1 0.1)
);

blocks          
(
    hex (0 1 2 3 4 5 6 7) (500 1 1) simpleGrading (1 1 1)
);

edges           
(
);

patches         
(
    patch lowValue 
    (
        (0 4 7 3)
    )
    patch highValue 
    (
        (2 6 5 1)
    )
);

mergePatchPairs
(
);

// ************************************************************************* //
