/*--------------------------------*- C++ -*----------------------------------*\
| =========                 |                                                 |
| \\      /  F ield         | OpenFOAM: The Open Source CFD Toolbox           |
|  \\    /   O peration     | Version:  1.7.0                                 |
|   \\  /    A nd           | Web:      www.OpenFOAM.com                      |
|    \\/     M anipulation  |                                                 |
\*---------------------------------------------------------------------------*/
FoamFile
{
    version     2.0;
    format      ascii;
    class       volTensorField;
    object      B;
}
// * * * * * * * * * * * * * * * * * * * * * * * * * * * * * * * * * * * * * //

dimensions      [0 2 -2 0 0 0 0];

internalField   uniform (0 0 0 0 0 0 0 0 0);

boundaryField
{
    axis
    {
        type            empty;
    }

    inlet           
    {
        type            fixedValue;
        value           uniform (0 0 0 0 0 0 0 0 0);
    }

    wall            
    {
        type            zeroGradient;
    }

    atmosphere      
    {
        type            inletOutlet;
        inletValue      uniform (0 0 0 0 0 0 0 0 0);
        value           uniform (0 0 0 0 0 0 0 0 0);
    }

    front         
    {
        type            wedge;
    }

    back         
    {
        type            wedge;
    }
}

// ************************************************************************* //
