/*-------------------------------*- C++ -*---------------------------------*\
|    =========                                                              |
|    \\      /     OpenFOAM  1.4.1                                          |
|     \\    /                                                               |
|      \\  /       The Open Source CFD Toolbox                              |
|       \\/                                        http://www.OpenFOAM.org  |
\*-------------------------------------------------------------------------*/
FoamFile
{
    version         2.0;
    format          ascii;
    class           dictionary;
    location        system;
    object          probesDict;
}

// * * * * * * * * * * * * * * * * * * * * * * * * * * * * * * * * * * * * //


// Fields to be probed. runTime modifiable!
fields
(
    p
);

// Locations to be probed. runTime modifiable!
probeLocations
(
    (0.0254 0.0253 0.0)
    (0.0508 0.0253 0.0)
    (0.0762 0.0253 0.0)
    (0.1016 0.0253 0.0)
    (0.1270 0.0253 0.0)
    (0.1524 0.0253 0.0)
    (0.1778 0.0253 0.0)
);

// * * * * * * * * * * * * * * * * * * * * * * * * * * * * * * * * * * * * //
