/*--------------------------------*- C++ -*----------------------------------*\
| =========                 |                                                 |
| \\      /  F ield         | OpenFOAM: The Open Source CFD Toolbox           |
|  \\    /   O peration     | Version:  1.6                                   |
|   \\  /    A nd           | Web:      http://www.OpenFOAM.org               |
|    \\/     M anipulation  |                                                 |
\*---------------------------------------------------------------------------*/
FoamFile
{
    version     2.0;
    format      ascii;
    class       volScalarField;
    object      epsilon;
}
// * * * * * * * * * * * * * * * * * * * * * * * * * * * * * * * * * * * * * //

dimensions      [0 2 -3 0 0 0 0];

internalField   uniform 14.855;

boundaryField
{
    inlet           
    {
        type            fixedValue;
        value           uniform 14.855;
    }

    outlet          
    {
        type            zeroGradient;
    }

    innerWall       
    {
        type            epsilonWallFunction;
        U               Urel;
        value           uniform 14.855;
    }

    outerWall       
    {
        type            epsilonWallFunction;
        U               Urel;
        value           uniform 14.855;
    }

    cyclic    
    {
        type            cyclic;
    }
}

// ************************************************************************* //
