/*---------------------------------------------------------------------------*\
| =========                 |                                                 |
| \\      /  F ield         | OpenFOAM: The Open Source CFD Toolbox           |
|  \\    /   O peration     | Version:  1.6                                   |
|   \\  /    A nd           | Web:      http://www.openfoam.org               |
|    \\/     M anipulation  |                                                 |
\*---------------------------------------------------------------------------*/

FoamFile
{
    version         2.0;
    format          ascii;

    root            "";
    case            "";
    instance        "";
    local           "";

    class           dictionary;
    object          transportProperties;
}

// * * * * * * * * * * * * * * * * * * * * * * * * * * * * * * * * * * * * * //

transportModel Newtonian;

// Laminar viscosity
nu              nu [0 2 -1 0 0 0 0] 1e-05;

// Thermal expansion coefficient
beta            beta [0 0 0 -1 0 0 0] 3e-03;

// Reference temperature
TRef            TRef [0 0 0 1 0 0 0] 300;

// Laminar Prandtl number
Pr              Pr [0 0 0 0 0 0 0] 0.9;

// Turbulent Prandtl number
Prt             Prt [0 0 0 0 0 0 0] 0.7;

// ************************************************************************* //
