/*--------------------------------*- C++ -*----------------------------------*\
| =========                 |                                                 |
| \\      /  F ield         | OpenFOAM: The Open Source CFD Toolbox           |
|  \\    /   O peration     | Version:  1.7.0                                 |
|   \\  /    A nd           | Web:      www.OpenFOAM.com                      |
|    \\/     M anipulation  |                                                 |
\*---------------------------------------------------------------------------*/
FoamFile
{
    version     2.0;
    format      ascii;
    class       polyBoundaryMesh;
    location    "constant/polyMesh";
    object      boundary;
}
// * * * * * * * * * * * * * * * * * * * * * * * * * * * * * * * * * * * * * //

3
(
    stationaryWalls
    {
        type            wall;
        nFaces          11200;
        startFace       277808;
    }
    atmosphere
    {
        type            patch;
        nFaces          1600;
        startFace       289008;
    }
    floatingObject
    {
        type            wall;
        nFaces          672;
        startFace       290608;
    }
)

// ************************************************************************* //
