/*--------------------------------*- C++ -*----------------------------------*\
| =========                 |                                                 |
| \\      /  F ield         | OpenFOAM: The Open Source CFD Toolbox           |
|  \\    /   O peration     | Version:  1.7.1                                 |
|   \\  /    A nd           | Web:      www.OpenFOAM.com                      |
|    \\/     M anipulation  |                                                 |
\*---------------------------------------------------------------------------*/
FoamFile
{
    version     2.0;
    format      ascii;
    class       dictionary;
    location    "constant";
    object      transportProperties;
}
// * * * * * * * * * * * * * * * * * * * * * * * * * * * * * * * * * * * * * //

phasea
{
    rho             rho [ 1 -3 0 0 0 ] 2500;
    nu              nu [ 0 2 -1 0 0 ] 1e-06;
    d               d [ 0 1 0 0 0 0 0 ] 0.0003;
}

phaseb
{
    rho             rho [ 1 -3 0 0 0 ] 1.2;
    nu              nu [ 0 2 -1 0 0 ] 1.5e-05;
    d               d [ 0 1 0 0 0 0 0 ] 1;
}

Cvm             Cvm [ 0 0 0 0 0 ] 0;

Cl              Cl [ 0 0 0 0 0 ] 0;

Ct              Ct [ 0 0 0 0 0 ] 0;

alphaAlpha      alphaAlpha [ 0 0 0 0 0 ] 0;


// ************************************************************************* //
