/*--------------------------------*- C++ -*----------------------------------*\
| =========                 |                                                 |
| \\      /  F ield         | OpenFOAM: The Open Source CFD Toolbox           |
|  \\    /   O peration     | Version:  1.7.1                                 |
|   \\  /    A nd           | Web:      www.OpenFOAM.com                      |
|    \\/     M anipulation  |                                                 |
\*---------------------------------------------------------------------------*/
FoamFile
{
    version     2.0;
    format      ascii;
    class       polyBoundaryMesh;
    location    "constant/polyMesh";
    object      boundary;
}
// * * * * * * * * * * * * * * * * * * * * * * * * * * * * * * * * * * * * * //

3
(
    periodicX
    {
        type            cyclic;
        nFaces          288;
        startFace       4752;
        featureCos      0.9;
    }
    periodicY
    {
        type            cyclic;
        nFaces          288;
        startFace       5040;
        featureCos      0.9;
    }
    periodicZ
    {
        type            cyclic;
        nFaces          288;
        startFace       5328;
        featureCos      0.9;
    }
)

// ************************************************************************* //
