/*--------------------------------*- C++ -*----------------------------------*\
| =========                 |                                                 |
| \\      /  F ield         | OpenFOAM: The Open Source CFD Toolbox           |
|  \\    /   O peration     | Version:  1.7.1                                 |
|   \\  /    A nd           | Web:      www.OpenFOAM.com                      |
|    \\/     M anipulation  |                                                 |
\*---------------------------------------------------------------------------*/
FoamFile
{
    version     2.0;
    format      ascii;
    class       dictionary;
    location    "constant";
    object      thermophysicalProperties;
}
// * * * * * * * * * * * * * * * * * * * * * * * * * * * * * * * * * * * * * //

thermoType
    hhuMixtureThermo<homogeneousMixture<sutherlandTransport<specieThermo<janafThermo<perfectGas>>>>>;

stoichiometricAirFuelMassRatio
    stoichiometricAirFuelMassRatio [0 0 0 0 0 0 0] 15.675;

// phi = 0.57
// ft = 0.0352993
// Tad = 1650.1

fuel fuel       1       44.0962
    100 5000    1000
    7.53414 0.0188722 -6.27185e-06 9.14756e-10 -4.78381e-14 -16467.5 -17.8923
    0.933554 0.0264246 6.10597e-06 -2.19775e-08 9.51493e-12 -13958.5 19.2017
    1.67212e-06 170.672;

oxidant oxidant 1       28.8504
    100 6000    1000
    3.10131 0.00124137 -4.18816e-07 6.64158e-11 -3.91274e-15 -985.266 5.35597
    3.58378 -0.000727005 1.67057e-06 -1.09203e-10 -4.31765e-13 -1050.53 3.11239
    1.67212e-06 170.672;

reactants reactants     1       29.2068
    100 5000    1000
    3.20495 0.00165359 -5.55661e-07 8.62503e-11 -4.93973e-15 -1347.25 4.81241
    3.52181 -9.21936e-05 1.77427e-06 -6.2049e-10 -1.99209e-13 -1352.32 3.48856
    1.67212e-06 170.672;

burntProducts burntProducts     1       28.3233
    100 6000    1000
    3.10558 0.00179747 -5.94696e-07 9.05605e-11 -5.08443e-15 -11003.6 5.12104
    3.49796 0.000638555 -1.83881e-07 1.20989e-09 -7.68691e-13 -11080.5 3.18188
    1.67212e-06 170.672;

products products       1       28.5396
    100 5000    1000
    3.10383 0.00156927 -5.22523e-07 8.06527e-11 -4.60363e-15 -6892.54 5.21744
    3.53318 7.81943e-05 5.77097e-07 6.68595e-10 -6.30433e-13 -6964.71 3.15336
    1.67212e-06 170.672;

// ************************************************************************* //
