ELEMENTS
O  H  C  N
END
SPECIES
N2  O2 CH4  H2  CO2 H2O
END
REACTIONS
 CH4  + 2   O2 => CO2 + 2 H2O 7.000E+12  0.00  20000
 H2   + 0.5 O2 => H2O         1.500E+14  0.00  20000

END
