/*--------------------------------*- C++ -*----------------------------------*\
| =========                 |                                                 |
| \\      /  F ield         | OpenFOAM: The Open Source CFD Toolbox           |
|  \\    /   O peration     | Version:  1.7.0                                 |
|   \\  /    A nd           | Web:      www.OpenFOAM.com                      |
|    \\/     M anipulation  |                                                 |
\*---------------------------------------------------------------------------*/
FoamFile
{
    version     2.0;
    format      ascii;
    class       volVectorField;
    object      Ub;
}
// * * * * * * * * * * * * * * * * * * * * * * * * * * * * * * * * * * * * * //

dimensions          [ 0 1 -1 0 0 0 0 ];

internalField       uniform (0 0 0);

boundaryField
{
    bottom
    {
        type               fixedValue;
        value              uniform (0 0 0.9);
    }

    top
    {
        type                inletOutlet;
        value               uniform (0 0 0);
        inletValue          uniform ( 0 0 0 );
    }

    walls
    {
        type               fixedValue;
        value              uniform (0 0 0);
    }

    frontBack
    {
        type               empty;
    }
}

// * * * * * * * * * * * * * * * * * * * * * * * * * * * * * * * * * * * * * //
