/*--------------------------------*- C++ -*----------------------------------*\
| =========                 |                                                 |
| \\      /  F ield         | OpenFOAM: The Open Source CFD Toolbox           |
|  \\    /   O peration     | Version:  1.7.1                                 |
|   \\  /    A nd           | Web:      http://www.OpenFOAM.com               |
|    \\/     M anipulation  |                                                 |
\*---------------------------------------------------------------------------*/
FoamFile
{
    version     2.0;
    format      ascii;
    class       volScalarField;
    object      k;
}
// * * * * * * * * * * * * * * * * * * * * * * * * * * * * * * * * * * * * * //

#include        "include/initialConditions"

dimensions      [0 2 -2 0 0 0 0];

internalField   uniform $turbulentKE;

boundaryField
{
    #include "include/ABLConditions"

    outlet
    {
        type            inletOutlet;
        inletValue      uniform 0.0;
        value           $internalField;
    }

    inlet
    {
        type            fixedValue;
        value           $internalField;
    }

    "terrain_.*"
    {
        type            kqRWallFunction;
        value           uniform 0.0;
    }

    ground
    {
        type            zeroGradient;
    }

    #include "include/sideAndTopPatches"
}


// ************************************************************************* //
