/*--------------------------------*- C++ -*----------------------------------*\
| =========                 |                                                 |
| \\      /  F ield         | OpenFOAM: The Open Source CFD Toolbox           |
|  \\    /   O peration     | Version:  1.7.1                                 |
|   \\  /    A nd           | Web:      www.OpenFOAM.com                      |
|    \\/     M anipulation  |                                                 |
\*---------------------------------------------------------------------------*/
FoamFile
{
    version     2.0;
    format      ascii;
    class       volScalarField;
    object      epsilon;
}
// * * * * * * * * * * * * * * * * * * * * * * * * * * * * * * * * * * * * * //

dimensions          [ 0 2 -3 0 0 0 0 ];

internalField       uniform 10.0;

referenceLevel      0;

boundaryField
{
    walls
    {
        type               zeroGradient;
    }
    outlet
    {
        type               inletOutlet;
        inletValue         uniform 10.0;
        value              uniform 10.0;
    }
    inlet
    {
        type               fixedValue;
        value              uniform 10.0;
    }
    frontAndBackPlanes
    {
        type               empty;
    }
}

// * * * * * * * * * * * * * * * * * * * * * * * * * * * * * * * * * * * * * //
