/*--------------------------------*- C++ -*----------------------------------*\
| =========                 |                                                 |
| \\      /  F ield         | OpenFOAM: The Open Source CFD Toolbox           |
|  \\    /   O peration     | Version:  1.7.1                                 |
|   \\  /    A nd           | Web:      www.OpenFOAM.com                      |
|    \\/     M anipulation  |                                                 |
\*---------------------------------------------------------------------------*/
FoamFile
{
    version     2.0;
    format      ascii;
    class       polyBoundaryMesh;
    location    "constant/polyMesh";
    object      boundary;
}
// * * * * * * * * * * * * * * * * * * * * * * * * * * * * * * * * * * * * * //

4
(
    inlet
    {
        type            patch;
        nFaces          20;
        startFace       15580;
    }
    atmosphere
    {
        type            patch;
        physicalType    atmosphere;
        nFaces          20;
        startFace       15600;
    }
    walls
    {
        type            wall;
        nFaces          800;
        startFace       15620;
    }
    frontAndBack
    {
        type            empty;
        nFaces          16000;
        startFace       16420;
    }
)

// ************************************************************************* //
