/*--------------------------------*- C++ -*----------------------------------*\
| =========                 |                                                 |
| \\      /  F ield         | OpenFOAM: The Open Source CFD Toolbox           |
|  \\    /   O peration     | Version:  1.6                                   |
|   \\  /    A nd           | Web:      www.OpenFOAM.org                      |
|    \\/     M anipulation  |                                                 |
\*---------------------------------------------------------------------------*/
FoamFile
{
    version     2.0;
    format      ascii;
    class       dictionary;
    location    "constant";
    object      dsmcProperties;
}
// * * * * * * * * * * * * * * * * * * * * * * * * * * * * * * * * * * * * * //


// General Properties
// ~~~~~~~~~~~~~~~~~~

nEquivalentParticles            1e12;


// Wall Interaction Model
// ~~~~~~~~~~~~~~~~~~~~~~

WallInteractionModel            SpecularReflection;

SpecularReflectionCoeffs {}

// Binary Collision Model
// ~~~~~~~~~~~~~~~~~~~~~~

BinaryCollisionModel            LarsenBorgnakkeVariableHardSphere;

LarsenBorgnakkeVariableHardSphereCoeffs
{
    Tref                        273;
    relaxationCollisionNumber   5.0;
}


// Inflow Boundary Model
// ~~~~~~~~~~~~~~~~~~~~~
InflowBoundaryModel             NoInflow;

NoInflowCoeffs {}

// Molecular species
// ~~~~~~~~~~~~~~~~~

typeIdList                      (N2 O2);

moleculeProperties
{
    N2
    {
        mass                            46.5e-27;
        diameter                        4.17e-10;
        internalDegreesOfFreedom        2;
        viscosityCoefficient            1.656e-5;
        omega                           0.74;
    }

    O2
    {
        mass                            53.12e-27;
        diameter                        4.07e-10;
        internalDegreesOfFreedom        2;
        viscosityCoefficient            1.919e-5;
        omega                           0.77;
    }
}


// ************************************************************************* //
