ELEMENTS
O  H  N
END
SPECIES
N2  O2 H2O
END
