/*--------------------------------*- C++ -*----------------------------------*\
| =========                 |                                                 |
| \\      /  F ield         | OpenFOAM: The Open Source CFD Toolbox           |
|  \\    /   O peration     | Version:  1.7.1                                 |
|   \\  /    A nd           | Web:      www.OpenFOAM.com                      |
|    \\/     M anipulation  |                                                 |
\*---------------------------------------------------------------------------*/
FoamFile
{
    version     2.0;
    format      ascii;
    class       dictionary;
    object      controlDict;
}
// * * * * * * * * * * * * * * * * * * * * * * * * * * * * * * * * * * * * * //

application                interPhaseChangeFoam;

startFrom                  latestTime;

startTime                  0;

stopAt                     endTime;

endTime                    0.05;

deltaT                     1e-8;

writeControl               adjustableRunTime;

writeInterval              0.001;

purgeWrite                 0;

writeFormat                ascii;

writePrecision             6;

writeCompression           uncompressed;

timeFormat                 general;

runTimeModifiable          yes;

adjustTimeStep             on;

maxCo                      1.0;


// ************************************************************************* //
