/*---------------------------------------------------------------------------*\
| =========                 |                                                 |
| \\      /  F ield         | OpenFOAM: The Open Source CFD Toolbox           |
|  \\    /   O peration     | Version:  1.7.0                                 |
|   \\  /    A nd           | Web:      www.OpenFOAM.com                      |
|    \\/     M anipulation  |                                                 |
\*---------------------------------------------------------------------------*/

FoamFile
{
    version         2.0;
    format          ascii;

    root            "";
    case            "";
    instance        "";
    local           "";

    class           dictionary;
    object          blockMeshDict;
}

// * * * * * * * * * * * * * * * * * * * * * * * * * * * * * * * * * * * * * //


convertToMeters 1;

vertices        
(
    ( 659600  4.7514e+06  1028)
    ( 659600  4.7514e+06  2100)
    ( 662300  4.7514e+06  2100)
    ( 662300  4.7514e+06  1028)
    ( 659600  4.7545e+06  1028)
    ( 659600  4.7545e+06  2100)
    ( 662300  4.7545e+06  2100)
    ( 662300  4.7545e+06  1028)
);
blocks          
(
    hex (0 1 2 3 4 5 6 7) (20 60 60) simpleGrading (10.0 1 1)
);


edges           
(
);

patches         
(
    patch maxX 
    (
        (3 7 6 2)
    )
    patch minZ
    (
        (0 4 7 3)
    )
    patch maxZ
    (
        (2 6 5 1)
    )
    patch minX
    (
        (1 5 4 0)
    )
    patch minY
    (
        (0 3 2 1)
    )
    patch maxY
    (
        (4 5 6 7)
    )
);

mergePatchPairs 
(
);


// ************************************************************************* //
