/*---------------------------------------------------------------------------*\
| =========                 |                                                 |
| \\      /  F ield         | OpenFOAM: The Open Source CFD Toolbox           |
|  \\    /   O peration     | Version:  1.7.0                                 |
|   \\  /    A nd           | Web:      www.OpenFOAM.com                      |
|    \\/     M anipulation  |                                                 |
\*---------------------------------------------------------------------------*/

FoamFile
{
    version         2.0;
    format          ascii;

    root            "";
    case            "";
    instance        "";
    local           "";

    class           dictionary;
    object          blockMeshDict;
}

// * * * * * * * * * * * * * * * * * * * * * * * * * * * * * * * * * * * * * //


convertToMeters 1;

vertices        
(
    ( 659531  4.7513e+06   1028)
    ( 659531  4.7513e+06   2100)
    ( 662381  4.7513e+06   2100)
    ( 662381  4.7513e+06   1028)
    ( 659531  4.75454e+06  1028)
    ( 659531  4.75454e+06  2100)
    ( 662381  4.75454e+06  2100)
    ( 662381  4.75454e+06  1028)
);
blocks          
(
    hex (0 1 2 3 4 5 6 7) (20 60 60) simpleGrading (10.0 1 1)
);


edges           
(
);

patches         
(
    wall maxX 
    (
        (3 7 6 2)
    )
    wall minZ
    (
        (0 4 7 3)
    )
    wall maxZ
    (
        (2 6 5 1)
    )
    wall minX
    (
        (1 5 4 0)
    )
    wall minY
    (
        (0 3 2 1)
    )
    wall maxY
    (
        (4 5 6 7)
    )
);

mergePatchPairs 
(
);


// ************************************************************************* //
