/*--------------------------------*- C++ -*----------------------------------*\
| =========                 |                                                 |
| \\      /  F ield         | OpenFOAM: The Open Source CFD Toolbox           |
|  \\    /   O peration     | Version:  1.6                                   |
|   \\  /    A nd           | Web:      www.OpenFOAM.org                      |
|    \\/     M anipulation  |                                                 |
\*---------------------------------------------------------------------------*/
FoamFile
{
    version     2.0;
    format      ascii;
    class       dictionary;
    location    "constant";
    object      porousZones;
}
// * * * * * * * * * * * * * * * * * * * * * * * * * * * * * * * * * * * * * //

(
/*
    porousRegion // name of cell zone
    {
        coordinateSystem
        {
            e1  (1 0 0);
            e2  (0 1 0);
        }

        Darcy
        {
            d   d [0 -2 0 0 0 0 0] (500000 -1000 -1000);
            f   f [0 -1 0 0 0 0 0] (0 0 0);
        }
    }
*/
);


// ************************************************************************* //
