!*************************************************************************************!
!                                                                                     !
!                     DEPARTEMENT DE CHIMIE PHYSIQUE DES REACTIONS                    !
!                                   ENSIC-CNRS                                        !
!                            1 RUE GRANDVILLE, BP 451                                 !
!                           54001 NANCY CEDEX - FRANCE                                !
!                                                                                     !
!*************************************************************************************!
!                                                                                     !
!                          REACTION DATABASE FOR C0-C2 COMPOUNDS                      !
!                            FILE USABLE BY CHEMKIN II (SANDIA)                       !
!                        AUTHORS : F. BATTIN-LECLERC AND P. BARBE                     !
!                                    17 MARCH 1997                                    !
!                                                                                     !
!*************************************************************************************!
!!!!!!!!!!!!!!!!!!!!!!!!!!!!!!!!!!!!!!!!!!!!!!!!!!!!!!!!!!!!!!!!!!!!!!!!!!!!!!!!!!!!!!!
!                                                                                     !
!WARNING :   Reaction 347 have 2 temperature ranges                                   !
!                                                                                     !
!!!!!!!!!!!!!!!!!!!!!!!!!!!!!!!!!!!!!!!!!!!!!!!!!!!!!!!!!!!!!!!!!!!!!!!!!!!!!!!!!!!!!!!
ELEMENT!
H O C N AR
END
SPECIES
N2 AR O2 CH4 C2H6 C2H4 C2H2 CH2O CO CO2 H2 H2O H2O2
H C O OH HO2 CH3 CH2 CH2(S) CH C2H5 C2H3 C2H CH3O HCO HCCO CH2CO
CH3OH CH2OH CH3CO CH2CHO CH3CHO C2H4O CH3CO3 CH3CO3H CH3O2 CH3O2H C2H5O 
C2H5O2 C2H4O2H C2H5O2H C2H5OH C3H4 C3H6 C3H8 C4H2 C4H4 C4H6 UC4H8 
NC4H10 C2H3CHO C2H5CHO CH3OCH3 CH3OOCH3 NC3H7OH HOCH2CH2OH CH3COCH3
C2H5COCH3 CH3COCHO CH3COCH2OH CH3COCOCH3
END
THERMO 
O                           0C   0H   0O   1G  0300.00   5000.00  1000.00      1 
 0.02542060E+02-0.02755062E-03-0.03102803E-07 0.04551067E-10-0.04368052E-14    2
 0.02923080E+06 0.04920308E+02 0.02946429E+02-0.01638166E-01 0.02421032E-04    3
-0.01602843E-07 0.03890696E-11 0.02914764E+06 0.02963995E+02                   4
CO                          0C   1H   0O   1G  0300.00   5000.00  1000.00      1
 0.03025078E+02 0.01442689E-01-0.05630828E-05 0.01018581E-08-0.06910952E-13    2
-0.01426835E+06 0.06108218E+02 0.03262452E+02 0.01511941E-01-0.03881755E-04    3
 0.05581944E-07-0.02474951E-10-0.01431054E+06 0.04848897E+02                   4
C                           0C   1H   0O   0G  0300.00   5000.00  1000.00      1
 0.02602087E+02-0.01787081E-02 0.09087041E-06-0.01149933E-09 0.03310844E-14    2
 0.08542154E+06 0.04195177E+02 0.02498585E+02 0.08085777E-03-0.02697697E-05    3
 0.03040729E-08-0.01106652E-11 0.08545878E+06 0.04753459E+02                   4 
CH                          0C   1H   1O   0G  0300.00   5000.00  1000.00      1 
 0.02196223E+02 0.02340381E-01-0.07058201E-05 0.09007582E-09-0.03855040E-13    2 
 0.07086723E+06 0.09178373E+02 0.03200202E+02 0.02072876E-01-0.05134431E-04    3 
 0.05733890E-07-0.01955533E-10 0.07045259E+06 0.03331588E+02                   4 
CH2                         0C   1H   2O   0G  0300.00   5000.00  1000.00      1 
 0.03636408E+02 0.01933057E-01-0.01687016E-05-0.01009899E-08 0.01808256E-12    2 
 0.04534134E+06 0.02156561E+02 0.03762237E+02 0.01159819E-01 0.02489585E-05    3 
 0.08800836E-08-0.07332435E-11 0.04536791E+06 0.01712578E+02                   4 
CH2(S)                      0C   1H   2O   0G  0300.00   5000.00  1000.00      1 
 0.03552889E+02 0.02066788E-01-0.01914116E-05-0.01104673E-08 0.02021350E-12    2 
 0.04984975E+06 0.01686570E+02 0.03971265E+02-0.01699089E-02 0.01025369E-04    3 
 0.02492551E-07-0.01981266E-10 0.04989368E+06 0.05753207E+00                   4 
H2                          0C   0H   2O   0G  0300.00   5000.00  1000.00      1 
 2.50170E+00    1.78083E-03   -7.80013E-07    1.48437E-10   -1.03401E-14       2 
-6.86891E+02    1.25553E+00    3.43853E+00    1.44314E-04   -1.08191E-07       3 
 2.16839E-10   -5.54307E-14   -1.03749E+03   -3.92682E+00                      4 
H2O                         0C   0H   2O   1G  0300.00   5000.00  1000.00      1 
 2.68039E+00    3.09623E-03   -9.31393E-07    1.34865E-10   -7.70007E-15       2 
-2.99236E+04    6.77857E+00    3.97559E+00   -4.41834E-04    2.45596E-06       3 
-1.24431E-09    2.26702E-13   -3.02810E+04    7.71523E-02                      4 
O2                          0C   0H   0O   2G  0300.00   5000.00  1000.00      1 
 3.19345E+00    1.56657E-03   -6.90657E-07    1.32082E-10   -9.23577E-15       2 
-1.05228E+03    5.96618E+00    3.08809E+00    1.60342E-03   -5.34550E-07       3 
 2.80793E-11    2.98899E-15   -9.93828E+02    6.61069E+00                      4 
H2O2                        0C   0H   2O   2G  0300.00   5000.00  1000.00      1 
 5.20269E+00    3.07820E-03   -8.47786E-07    1.14867E-10   -6.24436E-15       2 
-1.81737E+04   -2.81106E+00    2.79724E+00    9.30806E-03   -3.27081E-06       3 
-3.91853E-09    2.63341E-12   -1.75951E+04    9.47142E+00                      4 
CH4                         0C   1H   4O   0G  0300.00   5000.00  1000.00      1 
 1.61991E+00    1.03080E-02   -3.71228E-06    6.14185E-10   -3.86748E-14       2 
-1.00748E+04    9.98982E+00    2.31954E+00    6.54738E-03   -7.48051E-07       3 
 2.60912E-09   -1.95537E-12   -9.99764E+03    7.24965E+00                      4 
CH2O                   0C   1H   2O   1     G  0300.00   5000.00  1000.00      1 
 2.91430E+00    6.64407E-03   -2.45282E-06    4.12836E-10   -2.63040E-14       2 
-1.52827E+04    7.43680E+00    2.41049E+00    7.02041E-03   -4.22947E-06       3 
 4.40116E-09   -2.12647E-12   -1.49519E+04    1.06246E+01                      4 
CH3OH                  0C   1H   4O   1     G  0300.00   5000.00  1000.00      1 
 3.27626E+00    1.05432E-02   -3.54918E-06    5.58743E-10   -3.39236E-14       2 
-2.58917E+04    6.60656E+00    1.85957E+00    1.25312E-02   -4.47107E-06       3 
 1.73293E-09   -8.71066E-13   -2.52879E+04    1.46835E+01                      4 
CO2                    0C   1H   0O   2     G  0300.00   5000.00  1000.00      1 
 2.73827E+00    6.09914E-03   -2.81755E-06    5.57282E-10   -3.99470E-14       2 
-4.82637E+04    8.67355E+00    2.67844E+00    6.31159E-03    1.20975E-06       3 
-7.46647E-09    3.79399E-12   -4.84134E+04    8.57691E+00                      4 
CH3O2H                 0C   1H   4O   2     G  0300.00   5000.00  1000.00      1 
 6.37596E+00    1.07372E-02   -3.68666E-06    5.88827E-10   -3.61266E-14       2 
-1.84341E+04   -6.12840E+00    3.09218E+00    1.80223E-02   -7.11862E-06       3 
-1.47978E-09    1.45517E-12   -1.74300E+04    1.13028E+01                      4 
C2H2                   0C   2H   2O   0     G  0300.00   5000.00  1000.00      1 
 3.00338E+00    7.58476E-03   -3.11008E-06    5.64312E-10   -3.79570E-14       2 
 2.62468E+04    5.29247E+00    2.54593E+00    1.14007E-02   -7.07123E-06       3 
-6.00363E-10    1.71894E-12    2.60564E+04    6.56609E+00                      4 
C2H4                   0C   2H   4O   0     G  0300.00   5000.00  1000.00      1 
 3.99720E-01    1.67299E-02   -6.80909E-06    1.22922E-09   -8.23928E-14       2 
 5.63749E+03    1.97729E+01    1.31810E+00    1.44460E-02   -2.74335E-06       3 
-3.10835E-09    1.52772E-12    5.26817E+03    1.47233E+01                      4 
C2H6                   0C   2H   6O   0     G  0300.00   5000.00  1000.00      1 
 3.94109E-01    2.11928E-02   -8.08560E-06    1.39339E-09   -9.03005E-14       2 
-1.10714E+04    1.96366E+01    9.75454E-01    1.88110E-02   -1.46453E-06       3 
-6.38247E-09    2.84067E-12   -1.13111E+04    1.65514E+01                      4 
CH2CO                  0C   2H   2O   1     G  0300.00   5000.00  1000.00      1 
 5.35267E+00    6.94209E-03   -2.50061E-06    4.13231E-10   -2.59692E-14       2 
-7.81007E+03   -3.80283E+00    2.99539E+00    1.23540E-02   -4.06499E-06       3 
-3.34608E-09    2.24152E-12   -7.15097E+03    8.53716E+00                      4 
CH3CHO                 0C   2H   4O   1     G  0300.00   5000.00  1000.00      1 
 0.05869E+02    0.10794E-01   -0.03646E-04    0.05413E-08   -0.02897E-12       2 
-0.02265E+06   -0.06013E+02   -5.97842E+01    4.89059E-01   -1.27143E-03       3 
 1.42135E-06   -5.67547E-10   -1.52478E+04    2.71669E+02                      4 
!coefficients de CHEMKIN a haute temperature et THERGAS a basse temperature!
C2H5OH                 0C   2H   6O   1     G  0300.00   5000.00  1000.00      1 
 5.62516E+00    1.59916E-02   -5.36799E-06    8.43422E-10   -5.11406E-14       2 
-3.10498E+04   -3.61961E+00    9.39858E-01    2.61811E-02   -9.25134E-06       3 
-3.45825E-09    2.62098E-12   -2.96238E+04    2.12634E+01                      4 
CH3OHCO                0C   2H   4O   2     G  0300.00   5000.00  1000.00      1 
 6.49235E+00    1.37029E-02   -4.83813E-06    7.88065E-10   -4.90158E-14       2 
-5.52426E+04   -7.87675E+00    1.30241E+00    2.57455E-02   -9.76857E-06       3 
-4.88314E-09    3.69546E-12   -5.37616E+04    1.93510E+01                      4 
C2H5O2                 0C   2H   5O   2     G  0300.00   5000.00  1000.00      1 
  .11325327E+02  .82862452E-02 -.18620285E-05  .21820865E-09 -.10786769E-13    2 
 -.69868408E+04 -.32948765E+02  .67205608E+00  .36275715E-01 -.30000807E-04    3 
  .13847888E-07 -.28458303E-11 -.37891184E+04  .22886873E+02                   4 
C2H5O2H                0C   2H   6O   2     G  0300.00   5000.00  1000.00      1 
 8.86549E+00    1.46991E-02   -4.66630E-06    7.03129E-10   -4.13262E-14       2 
-2.34663E+04   -1.74646E+01    2.03266E+00    3.20310E-02   -1.79773E-05       3 
 2.38766E-09    1.07206E-12   -2.15063E+04    1.82187E+01                      4
CH3CO3                 0C   2H   3O   3     G  0300.00   5000.00  1000.00      1
 .11077361E+02  .65959496E-02 -.14068501E-05  .15560973E-09 -.72247150E-14     2
 -.19400094E+05 -.29337929E+02 -.12573762E+01  .40412389E-01 -.36648889E-04    3
  .17055577E-07 -.31536631E-11 -.15821930E+05  .34825279E+02                   4
CH3CO3H                0C   2H   4O   3     G  0300.00   5000.00  1000.00      1 
 7.87651E+00    1.42400E-02   -4.81648E-06    7.62396E-10   -4.65514E-14       2 
-4.39851E+04   -9.71105E+00    2.19569E-01    3.53131E-02   -2.24276E-05       3 
 3.22888E-09    1.67243E-12   -4.19548E+04    2.96617E+01                      4 
C2H5CHO                0C   3H   6O   1     G  0300.00   5000.00  1000.00      1 
 7.00923E+00    1.80165E-02   -6.23156E-06    1.00111E-09   -6.17084E-14       2 
-2.56908E+04   -9.54021E+00    2.78861E+00    2.57043E-02   -6.85618E-06       3 
-4.35448E-09    2.43940E-12   -2.42672E+04    1.33993E+01                      4 
C2H4O                  0C   2H   4O   1     G  0300.00   5000.00  1000.00      1 
 4.47758E+00    1.35869E-02   -5.00744E-06    8.41742E-10   -5.35809E-14       2 
-8.75035E+03   -1.34619E+00   -9.24908E-01    2.64513E-02   -1.34725E-05       3 
 3.74058E-10    1.40310E-12   -7.13279E+03    2.71327E+01                      4
H                      0C   0H   1O   0     G  0300.00   5000.00  1000.00      1 
 2.51730E+00   -2.10523E-06    1.23733E-09   -2.92977E-13    2.40914E-17       2 
 2.54640E+04   -5.54129E-01    2.52530E+00   -6.39368E-05    1.54095E-07       3 
-1.54230E-10    5.47044E-14    2.54635E+04   -5.86360E-01                      4 
OH                     0C   0H   1O   1     G  0300.00   5000.00  1000.00      1 
 2.16403E+00    2.49996E-03   -1.20620E-06    2.46260E-10   -1.80763E-14       2 
 4.19496E+03    9.54587E+00    3.67780E+00   -2.14153E-04    5.70231E-08       3 
 1.71404E-10   -1.84629E-14    3.63597E+03    1.19670E+00                      4 
HO2                    0C   0H   1O   2     G  0300.00   5000.00  1000.00      1 
 4.72022E+00    1.38622E-03   -1.68457E-07    1.05843E-11   -2.40717E-16       2 
-2.41430E+02   -6.85165E-01    1.84854E+00    1.07988E-02   -8.54635E-06       3 
 4.18415E-10    1.44074E-12    3.26446E+02    1.34319E+01                      4 
CH3                    0C   1H   3O   0     G  0300.00   5000.00  1000.00      1 
 1.02702E+00    9.49641E-03   -3.82860E-06    6.86498E-10   -4.57900E-14       2 
 1.67624E+04    1.53006E+01    2.94974E+00    5.11940E-03   -8.75334E-07       3 
 6.64224E-10   -5.42393E-13    1.61486E+04    5.05087E+00                      4 
HCO                    0C   1H   1O   1     G  0300.00   5000.00  1000.00      1 
 4.39893E+00    1.53560E-03   -1.99211E-07    1.43007E-11   -4.51357E-16       2 
 1.46590E+03    1.23461E+00    2.96884E+00    5.16190E-03   -6.79642E-06       3 
 7.15025E-09   -2.73201E-12    2.04422E+03    9.08982E+00                      4 
CH2OH                  0C   1H   3O   1     G  0300.00   5000.00  1000.00      1 
 6.72615E+00    2.58400E-03   -3.43695E-07    2.58671E-11   -8.92075E-16       2 
-5.93852E+03   -1.07401E+01    1.75181E+00    1.63562E-02   -2.19316E-05       3 
 2.01041E-08   -7.28744E-12   -4.21651E+03    1.57722E+01                      4 
CH3O                   0C   1H   3O   1     G  0300.00   5000.00  1000.00      1 
 6.45804E+00    3.22182E-03   -5.09801E-07    4.41966E-11   -1.69366E-15       2 
-8.23233E+02   -1.22475E+01    2.40571E-01    1.87747E-02   -2.13180E-05       3 
 1.81151E-08   -6.61230E-12    1.35827E+03    2.11815E+01                      4 
CH2O2H                 0C   1H   3O   2     G  0300.00   5000.00  1000.00      1 
 1.01575E+01    2.21923E-03   -2.71559E-07    1.97488E-11   -7.06327E-16       2 
 9.23978E+02   -2.52115E+01    1.82419E+00    3.00692E-02   -4.32332E-05       3 
 3.42492E-08   -1.07827E-11    3.25193E+03    1.72697E+01                      4 
CH3O2                  0C   1H   3O   2     G  0300.00   5000.00  1000.00      1 
 9.76413E+00    3.04276E-03   -4.67054E-07    3.87833E-11   -1.39425E-15       2 
-1.91174E+03   -2.69241E+01    1.48937E+00    2.40776E-02   -2.38748E-05       3 
 1.51535E-08   -4.47557E-12    7.64340E+02    1.69852E+01                      4 
C2H                    0C   2H   1O   0     G  0300.00   5000.00  1000.00      1 
 6.02264E+00    8.77475E-04   -8.67941E-08    3.67081E-12    1.93550E-17       2 
 6.20557E+04   -9.36163E+00    1.89603E+00    1.61116E-02   -1.74770E-05       3 
 5.93645E-09    3.50654E-13    6.28086E+04    1.05397E+01                      4 
C2H3                   0C   2H   3O   0     G  0300.00   5000.00  1000.00      1 
 3.27253E+00    8.18550E-03   -2.26647E-06    3.09596E-10   -1.70006E-14       2 
 3.39897E+04    7.07663E+00    2.29441E+00    1.02693E-02   -3.45618E-06       3 
 3.18937E-10    6.99872E-14    3.43028E+04    1.23194E+01                      4 
C2H5                   0C   2H   5O   0     G  0300.00   5000.00  1000.00      1 
 3.50261E+00    1.26143E-02   -3.65730E-06    5.16642E-10   -2.90469E-14       2 
 1.24032E+04    5.44236E+00    5.46580E-01    2.04368E-02   -1.16694E-05       3 
 4.82541E-09   -1.19281E-12    1.32743E+04    2.09001E+01                      4 
HCCO                   OC   2H   1O   1     G  0300.00   5000.00  1000.00      1 
 0.06758073E+02 0.02000400E-01-0.02027607E-05-0.01041132E-08 0.01965165E-12    2 
 0.01901513E+06-0.09071262E+02 0.05047965E+02 0.04453478E-01 0.02268283E-05    3 
-0.01482095E-07 0.02250742E-11 0.01965892E+06 0.04818439E+01                   4 
CH2CHO                 0C   2H   3O   1     G  0300.00   5000.00  1000.00      1 
 0.05976E+02    0.08131E-01   -0.02744E-04    0.04070E-08   -0.02176E-12       2 
 0.04903E+04   -0.05045E+02   -5.49040E+01    4.51253E-01   -1.17037E-03       3 
 1.30375E-06   -5.19201E-10    7.54530E+03    2.51103E+02                      4 
!coefficients de CHEMKIN a haute temperature et THERGAS a basse temperature! 
CH3CO                  0C   2H   3O   1     G  0300.00   5000.00  1000.00      1 
 5.17844E+00    8.15192E-03   -2.10111E-06    2.71446E-10   -1.42897E-14       2 
-5.94327E+03   -2.17361E-01    3.78076E+00    5.97858E-03    8.17510E-06       3 
-8.25542E-09    1.81654E-12   -5.11877E+03    8.85731E+00                      4 
C2H4OHP                0C   2H   5O   1     G  0300.00   5000.00  1000.00      1 
 9.39205E+00    7.10512E-03   -1.46197E-06    1.56731E-10   -7.08032E-15       2 
-7.55283E+03   -2.24447E+01   -1.60895E-01    3.69785E-02   -4.20936E-05       3 
 2.86827E-08   -8.21586E-12   -4.88243E+03    2.65306E+01                      4 
C2H4OHS                0C   2H   5O   1     G  0300.00   5000.00  1000.00      1 
 8.62875E+00    7.87632E-03   -1.71370E-06    1.94535E-10   -9.32452E-15       2 
-1.13847E+04   -1.81140E+01    1.77720E+00    2.41611E-02   -1.64825E-05       3 
 6.75643E-09   -1.21081E-12   -9.15277E+03    1.84275E+01                      4 
C2H5O                  0C   2H   5O   1     G  0300.00   5000.00  1000.00      1 
 8.79327E+00    8.37917E-03   -1.93446E-06    2.29371E-10   -1.13191E-14       2 
-6.03107E+03   -2.23324E+01   -6.00093E-01    3.17670E-02   -2.42586E-05       3 
 1.08137E-08   -2.26856E-12   -3.08491E+03    2.73650E+01                      4 
CH2OHCO                0C   2H   3O   2     G  0300.00   5000.00  1000.00      1 
 1.10189E+01    4.53439E-03   -8.65589E-07    8.88128E-11   -3.95962E-15       2 
-3.35939E+04   -3.29218E+01    1.28829E-01    3.46503E-02   -3.43482E-05       3 
 1.86734E-08   -4.32868E-12   -3.03821E+04    2.38157E+01                      4 
C2H4O2H                0C   2H   5O   2     G  0300.00   5000.00  1000.00      1 
 1.19639E+01    6.99398E-03   -1.39221E-06    1.46301E-10   -6.56315E-15       2 
-1.64410E+02   -3.25611E+01    9.12805E-01    4.29306E-02   -5.09705E-05       3 
 3.45647E-08   -9.73011E-12    2.78459E+03    2.35878E+01                      4 
C3H4                   0C   3H   4          G  0300.00   5000.00  1000.00      1 
 .54693928E+01  .12151568E-01 -.43443515E-05 .71433565E-09  -.44747395E-13     2 
 .19852377E+05 -.54474335E+01  .22271647E+01 .19307628E-01  -.70081351E-05     3 
-.27282026E-08  .21393857E-11  .20828311E+05 .11726395E+02                     4 
C3H6                   0C   3H   6          G  0300.00   5000.00  1000.00      1
 .50026493E+01  .17638993E-01 -.62266308E-05  .10151433E-08 -.63235977E-13     2 
-.27056152E+03 -.24723434E+01  .55598283E+00  .27091531E-01 -.10752104E-04     3 
-.97539210E-09  .14314721E-11  .11570190E+04  .21344173E+02                    4 
C3H8                   0C   3H   8          G  0300.00   5000.00  1000.00      1 
 .54638848E+01  .22160569E-01  -.77296281E-05 .12495476E-08 -.77377605E-13     2 
-.15629374E+05 -.62309151E+01  -.31831896E+00 .34746405E-01 -.12885018E-04     3 
-.35057037E-08  .30165358E-11  -.13851594E+05 .24514595E+02                    4 
C4H2                   0C   4H   2          G  0300.00   5000.00  1000.00      1
 .82167263E+01  .75165699E-02  -.28333620E-05 .48376197E-09 -.31125981E-13     2
 .53914359E+05 -.19323837E+02   .45411844E+01 .16946664E-01 -.58588685E-05     3
-.70578716E-08  .47811238E-11   .54806316E+05-.54062080E+00                    4
C4H4                   0C   4H   4          G  0300.00   5000.00  1000.00      1 
 .74600129E+01  .13268776E-01  -.48047741E-05 .79804358E-09 -.50392033E-13     2 
 .33450691E+05 -.13594856E+02   .18884374E+01 .27130427E-01 -.11816426E-04     3 
-.46318047E-08  .40962659E-11   .34956789E+05 .15309685E+02                    4 
C4H6                   0C   4H   6          G  0300.00   5000.00  1000.00      1 
 .80518456E+01  .17540889E-01  -.61760657E-05 .10047656E-08 -.62479542E-13     2 
 .95697949E+04 -.18611710E+02  -.29224473E+00 .38725201E-01 -.16706719E-04     3 
-.81080902E-08  .67421541E-11   .11749236E+05 .24444702E+02                    4 
UC4H8                  0C   4H   8          G  0300.00   5000.00  1000.00      1 
 .12072002E+02  .17483519E-01  -.47358262E-05 .63614963E-09 -.34500855E-13     2 
 .34200605E+04 -.37559532E+02  -.86302972E+00 .53421453E-01 -.45552202E-04     3 
 .24475971E-07 -.60568863E-11   .72361128E+04 .29821739E+02                    4 
NC4H10                 0C   4H  10          G  0300.00   5000.00  1000.00      1 
 .77133317E+01  .27767614E-01 -.96156327E-05  .15456056E-08 -.95281279E-13     2 
-.19425240E+05 -.16262451E+02  .59979584E-01  .44005580E-01 -.15532127E-04     3 
-.52806315E-08  .40442116E-11 -.17040045E+05  .24565849E+02                    4 
C2H3CHO                0C   3H   4O   1     G  0300.00   5000.00  1000.00      1 
  .12311886E+02  .12961588E-01 -.61774654E-05  .12501405E-08 -.91169971E-13    2 
 -.15218951E+05 -.42303177E+02  .93137437E+00  .35574418E-01 -.33347264E-04    3 
  .28398034E-07 -.11395644E-10 -.10614329E+05  .21059492E+02                   4
C2H5CHO                0C   3H   6O   1     G  0300.00   5000.00  1000.00      1 
  .70107722E+01  .18013448E-01 -.62295217E-05  .10005839E-08 -.61661722E-13    2
 -.25691457E+05 -.95488281E+01  .28277023E+01  .25430365E-01 -.61913220E-05    3
 -.50245177E-08  .26785609E-11 -.24271348E+05  .13234089E+02                   4
CH3OCH3                0C   2H   6O   1     G  0300.00   5000.00  1000.00      1
  .48582563E+01  .17240373E-01 -.59518788E-05  .95503494E-09 -.58825550E-13    2 
 -.24755031E+05 -.13852615E+01  .20368140E+01  .21299208E-01 -.51627690E-05    3 
 -.20305686E-08  .88250571E-12 -.23667908E+05  .14411049E+02                   4 
CH3OOCH3               0C   2H   6O   2     G  0300.00   5000.00  1000.00      1 
  .83690472E+01  .14833436E-01 -.46565133E-05  .69703088E-09 -.40832690E-13    2 
 -.18533230E+05 -.15578167E+02  .30638237E+01  .28614834E-01 -.24377980E-04    3 
  .19129631E-07 -.72663607E-11 -.16707926E+05  .12810528E+02                   4 
NC3H7OH                0C   3H   8O   1     G  0300.00   5000.00  1000.00      1 
  .71674681E+01  .22466624E-01 -.76292372E-05  .12097231E-08 -.73884075E-13    2 
 -.34686773E+05 -.95393562E+01  .12350693E+01  .34453284E-01 -.10589133E-04    3 
 -.54856804E-08  .35146994E-11 -.32804938E+05  .22268148E+02                   4 
HOCH2CH2OH             0C   2H   6O   2     G  0300.00   5000.00  1000.00      1 
  .94605846E+01  .00000000E+00  .00000000E+00  .00000000E+00  .00000000E+00    2 
 -.50706793E+05 -.15255096E+02  .94605846E+01  .00000000E+00  .00000000E+00    3 
  .00000000E+00  .00000000E+00 -.50706793E+05 -.15255096E+02                   4 
CH3COCH3               0C   3H   6O   1     G  0300.00   5000.00  1000.00      1 
  .59975996E+01  .19679097E-01 -.70154574E-05  .11513579E-08 -.72035416E-13    2 
 -.29362656E+05 -.55254784E+01  .14577827E+01  .28063715E-01 -.90218518E-05    3 
 -.24536706E-08  .16730232E-11 -.27794104E+05  .19218454E+02                   4 
C2H5COCH3              0C   4H   8O   1     G  0300.00   5000.00  1000.00      1 
  .87888947E+01  .24174010E-01 -.83446403E-05  .13376648E-08 -.82271822E-13    2 
 -.33018367E+05 -.17819489E+02  .27316518E+01  .35815358E-01 -.11085016E-04    3 
 -.44516226E-08  .28435873E-11 -.31006189E+05  .14949604E+02                   4 
CH3COCHO               0C   3H   4O   2     G  0300.00   5000.00  1000.00      1
  .89256687E+01  .13401341E-01 -.45334914E-05  .71644690E-09 -.43629983E-13    2 
 -.36391773E+05 -.23305817E+02  .36583393E+01  .17818777E-01  .12335082E-04    3 
 -.25004601E-07  .96781515E-11 -.34470117E+05  .63711262E+01                   4 
CH3COCH2OH             0C   3H   6O   2     G  0300.00   5000.00  1000.00      1
  .18422323E+02  .15847507E-02  .22200786E-05 -.75747592E-09  .68857395E-13    2 
 -.52232094E+05 -.69094208E+02  .29494412E+01  .29086677E-01 -.10206494E-04    3 
 -.26419480E-09  .92838457E-13 -.46496102E+05  .16329613E+02                   4 
CH3COCOCH3             0C   4H   6O   2     G  0300.00   5000.00  1000.00      1 
  .10088178E+02  .20814884E-01 -.72801195E-05  .11796960E-08 -.73203515E-13    2 
 -.44156449E+05 -.21426254E+02  .20524170E+01  .39215170E-01 -.16422011E-04    3 
 -.39475361E-08  .38206075E-11 -.41770484E+05  .20989098E+02                   4 
END
REACTIONS 
!REACTIONS DE LA MATRICE O(0)C(y)H(z)!
!REACTIONS DE H2!
H2+M=H+H+M                  2.2E14      0.      95.7E3 !(1,-1)<BAULCH94>
!REACTIONS DE C
C+H2=CH+H                   4.0E14      0.      23.3E3 !(2,-2)<DEAN91>
!REACTIONS DE CH2(S)
CH2(S)+M=CH2+M              6.0E12      0.          0. !(3,-3)<BAULCH94average>
CH2(S)+H=CH+H2              3.0E13      0.          0. !(4,-4)<TSANG86>
!REACTIONS DE CH2
CH2+H=CH+H2                 6.0E12      0.      -1.8E3 !(5,-5)<BAULCH94>
CH2+C=C2H+H                 5.0E13      0.         0.  !(6,-6)<RANZI94>
CH2+CH2=>C2H2+H+H           1.2E14      0.       0.8E3 !(7)   <BAULCH94>
!REACTIONS DE CH3
CH3+M=CH2+H+M               1.0E16      0.      90.4E3 !(8,-8)<BAULCH94>
CH3+H=CH2(S)+H2             6.0E13      0.      15.0E3 !(9,-9)<BAULCH94>
CH3+CH=C2H3+H               3.0E13      0.         0.  !(10,-10)<DAGAUT91>
CH3+CH2(S)=C2H4+H           1.8E13      0.         0.  !(11,-11)<TSANG86>
CH3+CH2=C2H4+H              4.2E13      0.         0.  !(12,-12)<BAULCH94>
CH3+C=C2H2+H                5.0E13      0.         0.  !(13,-13)<RANZI94>
CH3+CH3(+M)=C2H6(+M)        3.6E13      0.         0.  !(14,-14)<BAULCH94>
                    LOW     /1.3E41     -7.      3.0E3/
!-------------------------------------------------------------------------------------! 
!fittings  (20/12/94, F. Battin-Leclerc) on CH4-02 system in PSR between 500 and 1300C!
!CH3+CH3(+M)=C2H6(+M)        1.5E14     0.         0.!  !(14,-14)<BAULCH94*4>!
!                   LOW     /5.2E41     -7.      3.0E3/!
!-------------------------------------------------------------------------------------!
                    TROE    /0.62     73.       1180./  
CH3+CH3=C2H5+H               3.0E13      0.     13.5E3 !(15,-15)<BAULCH94>
!-------------------------------------------------------------------------------------! 
!fittings  (20/12/94, F. Battin-Leclerc) on CH4-02 system in PSR between 500 and 1300C!
!CH3+CH3=C2H5+H               1.5E14      0.     13.5E3! !(15,-15)<BAULCH94*5>!
!-------------------------------------------------------------------------------------! 
CH3+CH3=C2H4+H2              2.1E14      0.     19.3E3 !(16,-16)<FRANK86NIST>!  
!REACTIONS DE CH4
CH4(+M)=CH3+H(+M)            2.4E16      0.    104.5E3 !(17,-17)<BAULCH94>
                   LOW     /4.5E17      0.     90.5E3/   
                   TROE    /1.  1.   1350.     7830./ 
CH4+H=CH3+H2                 1.3E4       3.      8.0E3 !(18,-18)<BAULCH94>
CH4+CH=C2H4+H                3.0E13      0.     -0.4E3 !(19,-19)<DAGAUT91BAULCH94>
CH4+CH2(S)=CH3+CH3           4.2E13      0.         0. !(20,-20)<TSANG86>
!REACTIONS DE C2H
C2H+CH2(S)=C2H2+CH           1.8E13      0.         0. !(21,-21)<TSANG86> 
C2H+CH2=C2H2+CH              1.8E13      0.         0. !(22,-22)<TSANG86>
C2H+CH4=C2H2+CH3             1.2E12      0.         0. !(23,-23)<BAULCH94>
C2H+C2H=C4H2                 1.8E13      0.         0. !(24,-24)<TSANG86>
!REACTIONS DE C2H2
C2H2=C2H+H                   2.6E15      0.    123.9E3 !(25,-25)<TSANG86>
C2H2+H=C2H+H2                6.6E13      0.     27.7E3 !(26,-26)<BAULCH94>
C2H2+CH2(S)=C3H4             1.7E14      0.         0. !(27,-27)<BAULCH94>
C2H2+CH2=C3H4                3.5E12      0.         0. !(28,-28)<TSANG86>
C2H2+CH3=C3H4+H              6.7E19     -2.08   31.6E3 !(29,-29)<DEAN87>
C2H2+C2H=C4H2+H              9.0E13      0.         0. !(30,-30)<BAULCH94>
C2H2+C2H2=C4H4               5.5E12      0.     37.0E3 !(31,-31)<DURAN89>
!REACTIONS DE C2H3
C2H3(+M)=C2H2+H(+M)          2.0E14      0.     40.0E3 !(32,-32)<BAULCH94>
                    LOW     /4.1E41     -7.5    45.3E3/
                    TROE    /0.35        1.      1.0E8/
C2H3+H=C2H2+H2               1.2E13      0.         0. !(33,-33)<BAULCH94>
C2H3+CH2(S)=C2H2+CH3         1.8E13      0.         0. !(34,-34)<TSANG86>
C2H3+CH2=C2H2+CH3            1.8E13      0.         0. !(35,-35)<TSANG86>
C2H3+CH3=CH4+C2H2            3.9E11      0.         0. !(36,-36)<TSANG86>
C2H3+CH3=C3H6                2.5E13      0.         0. !(37,-37)<TSANG86>
C2H3+C2H=C4H4                1.8E13      0.         0. !(38,-38)<TSANG86>
C2H3+C2H=2C2H2               9.6E11      0.         0. !(39,-39)<TSANG86>
C2H3+C2H2=C4H4+H             2.0E12      0.      5.0E3 !(40,-40)<FAHR89>
C2H3+C2H3=C4H6               9.6E12      0.         0. !(41,-41)<TSANG86>
C2H3+C2H3=C2H4+C2H2          9.6E11      0.         0. !(42,-42)<TSANG86>
!REACTIONS DE C2H4
C2H4+M=C2H2+H2+M             3.5E16      0.     71.3E3 !(43,-43)<BAULCH94>
C2H4+M=C2H3+H+M              2.6E17      0.     96.2E3 !(44,-44)<BAULCH94>
C2H4+H=C2H3+H2               5.4E14      0      14.8E3 !(45,-45)<BAULCH94>
C2H4+CH=C3H4+H               1.3E14      0.     -0.3E3 !(46,-46)<BAULCH94>
C2H4+CH2(S)=C3H6             9.6E13      0.         0. !(47,-47)<BAULCH94>
C2H4+CH2=C3H6                3.2E12      0.      5.1E3 !(48,-48)<BAULCH94>
C2H4+CH3=CH4+C2H3            4.1E12      0.     11.1E3 !(49,-49)<BAULCH94>
C2H4+C2H=C4H4+H              1.2E13      0.         0. !(50,-50)<TSANG86>
C2H4+C2H3=C4H6+H             5.0E11      0.      7.3E3 !(51,-51)<TSANG86>
!REACTIONS DE C2H5
C2H5(+M)=C2H4+H(+M)          8.2E13      0.     40.0E3 !(52,-52)<BAULCH94>
                    LOW     /1.0E18      0.     33.3E3/
                    TROE    /0.75     97.       1379./
C2H5+H=C2H4+H2               1.8E12      0.         0. !(53,-53)<TSANG86>
C2H5+H=C2H6                  3.6E13      0.         0. !(54,-54><TSANG86>
C2H5+CH2(S)=C2H4+CH3         9.0E12      0.         0. !(55,-55)<TSANG86>
C2H5+CH2(S)=C3H6+H           9.0E12      0.         0. !(56,-56)<TSANG86>
C2H5+CH2=C2H4+CH3            1.8E13      0.         0. !(57,-57)<TSANG86>