ELEMENTS
 H   O    C   N   AR
END
SPECIE 
C6H5CH3  C7H8O  C7H7  C7H7O 
C7H7OH   C6H5CHO  C6H5CO
C12H10  C6H6  C6H5OH  C6H5O  C6H5  
C5H6  C5H5O  C5H4OH  C5H5  C5H4O  C4H6
CH2CHCHCH  C4H4  H2CCCCH  C4H2  C3H4  H2CCCH
C3H2  C2H4  C2H3  C2H2  CH2CO  C2H 
HCCO  CH4  CH3O  CH3  CH2O  CH2  CH2(3)
CH  CO2  CO  H2O  H2  H2O2  
HCO  HO2  H  OH  O2  O 
C6H5(L)  C6H4OH  C6H4  C6H2   C6H  C5H3
C5H2  CH2CHCCH2  HCCHCCH  C4H  H2C4O  C3H6
C3H5  C3H4P  C2H6  C2H5  HCCOH  C2O
CH3OH  CH2OH  C  C2
C6H3  C8H6  C8H8  C8H10  C10H7  C10H8
AR N2
END
THERMO ALL
   300.000  1000.000  5000.000
C6H5CH3           L 6/87C   7H   8    0    0G   200.000  6000.000              1
 0.12940034E+02 0.26691287E-01-0.96838505E-05 0.15738629E-08-0.94663601E-13    2
-0.69764908E+03-0.46728785E+02 0.16152663E+01 0.21099438E-01 0.85366018E-04    3
-0.13261066E-06 0.55956604E-10 0.40756300E+04 0.20282210E+02                   4
C7H8O CRESOL      L 6/87C   7H   8O   1    0G   200.000  6000.000              1
 0.15932987E+02 0.27011160E-01-0.99448722E-05 0.16296689E-08-0.98513298E-13    2
-0.23592065E+05-0.59732841E+02 0.42258267E+00 0.45551636E-01 0.32012513E-04    3
-0.81121959E-07 0.37665658E-10-0.18202621E+05 0.26032903E+02                   4
C6H5CHO           L 3/86C   7H   6O   1    0G   298.150  5000.000              1
 0.13650737E+02 0.25680419E-01-0.10466729E-04 0.19413430E-08-0.13483792E-12    2
-0.11019744E+05-0.47965796E+02-0.31627334E+01 0.66369245E-01-0.34816353E-04    3
-0.62999377E-08 0.85807101E-11-0.61169349E+04 0.40231735E+02                   4
C6H5CO    therm         C   7H   5O   1    0G   300.000  5000.000 1392.000     1
 1.75116258e+01 1.62650511e-02-5.65051892e-06 8.86922680e-10-5.18657990e-14    2
 4.67641545e+03-6.70531966e+01-1.56729686e+00 5.99817511e-02-4.29153585e-05    3
 1.48666854e-08-1.98938453e-12 1.12873830e+04 3.55490009e+01                   4
C6H4              BurcatC   6H   4    0    0G   300.000  5000.000 1420.000     1
 1.61320877E+01 9.41620382E-03-3.11126898E-06 4.72171941E-10-2.69719153E-14    2
 5.66472138E+04-5.91590247E+01-3.97720368E-01 5.75565537E-02-5.66835885E-05    3
 2.72075244E-08-5.03385170E-12 6.13213019E+04 2.60457753E+01                   4
CH2               BurcatC   1H   2    0    0G   200.000  6000.000              1
 0.03552888E+02 0.02066788E-01-0.01914116E-05-0.11046733E-09 0.02021349E-12    2
 0.04984975E+06 0.01686570E+02 0.03971265E+02-0.01699088E-02 0.10253689E-05    3
 0.02492550E-07-0.01981266E-10 0.04989367E+06 0.05753207E+00                   4
CH2(3)            BurcatC   1H   2    0    0G   200.000  6000.000              1
 0.25387122E+01 0.38225491E-02-0.12861304E-05 0.19800308E-09-0.11465743E-13    2
 0.46129253E+05 0.81054648E+01 0.41793655E+01-0.22178553E-02 0.79653602E-05    3
-0.69127339E-08 0.22475318E-11 0.45750857E+05-0.76113703E-02                   4
C3H4P             BurcatH   4C   3    0    0G   300.000  5000.000 1399.000     1
 7.42833795E+00 9.44170622E-03-3.17278962E-06 4.86601152E-10-2.79868438E-14    2
 1.88799773E+04-1.68291009E+01 1.75329557E+00 2.24124129E-02-1.45664551E-05    3
 5.08221854E-09-7.47083130E-13 2.08950138E+04 1.37761621E+01                   4
C3H4              BurcatC   3H   4    0    0G   300.000  5000.000 1401.000     1
 7.73985546E+00 9.20561227E-03-3.09859442E-06 4.75848854E-10-2.73966525E-14    2
 1.93588295E+04-1.93523527E+01 8.39838965E-01 2.58649489E-02-1.86527566E-05    3
 7.14802816E-09-1.13254013E-12 2.17003608E+04 1.75115041E+01                   4
C12H9       O-BIPHENYL84C 12.H  9.   0.   0.G   300.000  5000.000   1000.000   1
 0.23851303E 02 0.31960227E-01-0.11076719E-04 0.16847825E-08-0.92641173E-13    2
 0.40171297E 05-0.10270549E 03-0.31376228E 01 0.82217276E-01-0.40171444E-05    3
-0.60809782E-07 0.32074482E-10 0.48868754E 05 0.42730362E 02 0.51444448E 05    4
BIPHENYL          L12/84C  12H  10    0    0G   300.000  5000.000 1398.000     1
 3.03543436E+01 2.79259296E-02-9.52722170E-06 1.47907724E-09-8.58879412E-14    2
 6.80038924E+03-1.44507270E+02-9.07687754E+00 1.22663820E-01-9.48186712E-05    3
 3.55586680E-08-5.17329758E-12 1.99164369E+04 6.58085250E+01                   4
C12H10            BurcatC  12H  10    0    0G   300.000  5000.000 1398.000     1
 3.03543436E+01 2.79259296E-02-9.52722170E-06 1.47907724E-09-8.58879412E-14    2
 6.80038924E+03-1.44507270E+02-9.07687754E+00 1.22663820E-01-9.48186712E-05    3
 3.55586680E-08-5.17329758E-12 1.99164369E+04 6.58085250E+01                   4
AR                Kee186AR  1               G  0300.00   5000.00  1000.00      1
 0.02500000E+02 0.00000000E+00 0.00000000E+00 0.00000000E+00 0.00000000E+00    2
-0.07453750E+04 0.04366000E+02 0.02500000E+02 0.00000000E+00 0.00000000E+00    3
 0.00000000E+00 0.00000000E+00-0.07453750E+04 0.04366000E+02                   4
C                 Kee086C   1               G  0300.00   5000.00  1000.00      1
 0.02602087E+02-0.01787081E-02 0.09087041E-06-0.11499333E-10 0.03310844E-14    2
 0.08542154E+06 0.04195177E+02 0.02498584E+02 0.08085776E-03-0.02697697E-05    3
 0.03040729E-08-0.11066518E-12 0.08545878E+06 0.04753459E+02                   4
CH4               Kee286C   1H   4          G  0300.00   5000.00  1000.00      1
 0.01683478E+02 0.10237236E-01-0.03875128E-04 0.06785585E-08-0.04503423E-12    2
-0.10080787E+05 0.09623395E+02 0.07787415E+01 0.01747668E+00-0.02783409E-03    3
 0.03049708E-06-0.12239307E-10-0.09825229E+05 0.13722195E+02                   4
C2                Kee286C   2               G  0300.00   5000.00  1000.00      1
 0.04135978E+02 0.06531618E-03 0.01837099E-05-0.05295085E-09 0.04712137E-13    2
 0.09967272E+06 0.07472923E+01 0.06996045E+02-0.07400601E-01 0.03234703E-04    3
 0.04802535E-07-0.03295917E-10 0.09897487E+06-0.13862268E+02                   4
C2H               Kee387C   2H   1          G  0300.00   5000.00  1000.00      1
 0.04427688E+02 0.02216268E-01-0.06048952E-05 0.09882517E-09-0.07351179E-13    2
 0.06590415E+06-0.11994418E+01 0.03050667E+02 0.06051674E-01-0.04956634E-04    3
 0.02804159E-07-0.08193332E-11 0.06630011E+06 0.05954361E+02                   4
C2H2              Kee386C   2H   2          G  0300.00   5000.00  1000.00      1
 0.04436770E+02 0.05376039E-01-0.01912816E-04 0.03286379E-08-0.02156709E-12    2
 0.02566766E+06-0.02800338E+02 0.02013562E+02 0.15190446E-01-0.16163189E-04    3
 0.09078992E-07-0.01912746E-10 0.02612444E+06 0.08805378E+02                   4
C2H4              Kee286C   2H   4          G  0300.00   5000.00  1000.00      1
 0.03528418E+02 0.11485185E-01-0.04418385E-04 0.07844600E-08-0.05266848E-12    2
 0.04428288E+05 0.02230389E+02-0.08614880E+01 0.02796162E+00-0.03388677E-03    3
 0.02785152E-06-0.09737879E-10 0.05573046E+05 0.02421148E+03                   4
C2H5              Kee387C   2H   5          G  0300.00   5000.00  1000.00      1
 0.07190480E+02 0.06484077E-01-0.06428064E-05-0.02347879E-08 0.03880877E-12    2
 0.10674549E+05-0.14780892E+02 0.02690701E+02 0.08719133E-01 0.04419838E-04    3
 0.09338703E-08-0.03927773E-10 0.12870404E+05 0.12138195E+02                   4
C2H6              Kee686C   2H   6          G  0300.00   4000.00  1000.00      1
 0.04825938E+02 0.13840429E-01-0.04557258E-04 0.06724967E-08-0.03598161E-12    2
-0.12717793E+05-0.05239506E+02 0.14625388E+01 0.15494667E-01 0.05780507E-04    3
-0.12578319E-07 0.04586267E-10-0.11239176E+05 0.14432295E+02                   4
C2O               Kee286C   2O   1          G  0300.00   5000.00  1000.00      1
 0.04849809E+02 0.02947585E-01-0.10907286E-05 0.01792562E-08-0.11157585E-13    2
 0.03282055E+06-0.06453225E+01 0.03368850E+02 0.08241803E-01-0.08765145E-04    3
 0.05569262E-07-0.15400086E-11 0.03317081E+06 0.06713314E+02                   4
C3H2              Kee686C   3H   2          G  0300.00   5000.00  1000.00      1
 0.06530853E+02 0.05870316E-01-0.01720776E-04 0.02127498E-08-0.08291910E-13    2
 0.05115213E+06-0.11227278E+02 0.02691077E+02 0.14803664E-01-0.03250551E-04    3
-0.08644363E-07 0.05284877E-10 0.05219072E+06 0.08757391E+02                   4
C3H5              Kee/77C   3H   5          G  0300.00   5000.00  1000.00      1
 0.79091978E+01 0.12115255E-01-0.41175863E-05 0.61566796E-09-0.33235733E-13    2
 0.12354156E+05-0.19672333E+02-0.54100400E+00 0.27284101E-01-0.96365329E-06    3
-0.19129462E-07 0.98394175E-11 0.15130395E+05 0.26067337E+02                   4
C3H6              Kee186C   3H   6          G  0300.00   5000.00  1000.00      1
 0.06732257E+02 0.14908336E-01-0.04949899E-04 0.07212022E-08-0.03766204E-12    2
-0.09235703E+04-0.13313348E+02 0.14933071E+01 0.02092517E+00 0.04486794E-04    3
-0.16689121E-07 0.07158146E-10 0.10748264E+04 0.16145340E+02                   4
C4                Kee286C   4               G  0300.00   5000.00  1000.00      1
 0.06500180E+02 0.04228632E-01-0.01790717E-04 0.03404812E-08-0.02403978E-12    2
 0.11434008E+06-0.11488894E+02 0.02343028E+02 0.16429811E-01-0.15279858E-04    3
 0.07343826E-07-0.15822743E-11 0.11545384E+06 0.09826204E+02                   4
C4H               Kee686C   4H   1          G  0300.00   5000.00  1000.00      1
 0.06242882E+02 0.06193682E-01-0.02085931E-04 0.03082203E-08-0.16364826E-13    2
 0.07568019E+06-0.07210806E+02 0.05023247E+02 0.07092375E-01-0.06073762E-07    3
-0.02275752E-07 0.08086994E-11 0.07623812E+06-0.06942594E+00                   4
C4H2              Kee686C   4H   2          G  0300.00   5000.00  1000.00      1
 0.09031407E+02 0.06047252E-01-0.01948788E-04 0.02754863E-08-0.13856080E-13    2
 0.05294735E+06-0.02385067E+03 0.04005191E+02 0.01981000E+00-0.09865877E-04    3
-0.06635158E-07 0.06077413E-10 0.05424065E+06 0.01845736E+02                   4
C4H4              Kee   C   4H   4          G    300.000  5000.000 1404.000    1
 1.00207062E+01 9.67390881E-03-3.23076021E-06 4.93586227E-10-2.83175163E-14    2
 3.26359855E+04-2.84768495E+01 1.01074067E+00 3.33151781E-02-2.73656162E-05    3
 1.17824083E-08-2.04860686E-12 3.54881795E+04 1.89625510E+01                   4
C4H6              Kee186C   4H   6          G  0300.00   5000.00  1000.00      1
 0.08046583E+02 0.16485251E-01-0.05522227E-04 0.08123593E-08-0.04295078E-12    2
 0.13701305E+05-0.01800457E+03 0.03197108E+02 0.02025591E+00 0.06510192E-04    3
-0.16584423E-07 0.06400282E-10 0.15715203E+05 0.09895660E+02                   4
C5H2              Kee587C   5H   2          G  0300.00   5000.00  1000.00      1
 0.11329175E+02 0.07424056E-01-0.02628188E-04 0.04082541E-08-0.02301332E-12    2
 0.07878706E+06-0.03617117E+03 0.03062321E+02 0.02709998E+00-0.10091697E-04    3
-0.12727451E-07 0.09167219E-10 0.08114969E+06 0.07071078E+02                   4
C5H3              Kee387C   5H   3          G  0300.00   5000.00  1000.00      1
 0.10787622E+02 0.09539619E-01-0.03206744E-04 0.04733323E-08-0.02512135E-12    2
 0.06392904E+06-0.03005444E+03 0.04328720E+02 0.02352480E+00-0.05856723E-04    3
-0.12154494E-07 0.07726478E-10 0.06588531E+06 0.04173258E+02                   4
C5H4O      burcat       C   5H   4O   1    0G   300.000  5000.000 1000.000     1
 0.12606535e 02 0.16747067e-01-0.61097587e-05 0.99674576e-09-0.60111834e-13    2
 0.14114657e 04-0.42604911e 02 0.23043601e 00 0.32322572e-01 0.28900908e-04    3
-0.70680613e-07 0.33407174e-10 0.55554724e 04 0.25330946e 02                   4
C5H4OH     burcat       C   5H   5O   1    0G   300.000  5000.000 1000.000     1
 0.13367777e 02 0.15205911e-01-0.54592662e-05 0.88135325e-09-0.52774563e-13    2
 0.47218184e 04-0.45920099e 02-0.12820812e 01 0.49040075e-01-0.13687402e-04    3
-0.29134476e-07 0.19006885e-10 0.88893319e 04 0.30797801e 02                   4
C5H5               mar96C   5H   5          G  0300.00   4000.00  1403.00      1
 1.29044479e 01 1.26989021e-02-4.35726839e-06 6.78034680e-10-3.94047039e-14    2
 2.59665811e 04-4.89414326e 01-4.48313342e 00 6.14978772e-02-5.77725922e-05    3
 2.73308264e-08-5.08259162e-12 3.11707706e 04 4.15116727e 01                   4
C6H5O              82489C   6H   5O   1     G  0300.00   4000.00  1000.00      1
 0.01822639e+03 0.01003985e+00-0.09915668e-05-0.05672804e-08 0.01068372e-11    2
-0.02620846e+05-0.07361391e+03 0.01107497e+02 0.03956946e+00 0.08497295e-05    3
-0.02436311e-06 0.09650660e-10 0.03159672e+05 0.01973496e+03                   4
C6H5OH             82489C   6H   6O   1     G  0300.00   4000.00  1000.00      1
 0.01821633e+03 0.01142427e+00-0.01096684e-04-0.06427442e-08 0.01198893e-11    2
-0.02053664e+06-0.07304234e+03 0.01391456e+02 0.03931958e+00 0.01777096e-04    3
-0.02277673e-06 0.08309659e-10-0.01472181e+06 0.01917813e+03                   4
C5H6              Kee387C   5H   6          G  0300.00   5000.00  1000.00      1
 0.09689815E+02 0.01838262E+00-0.06264884E-04 0.09393377E-08-0.05087708E-12    2
 0.11021242E+05-0.03122908E+03-0.03196739E+02 0.04081361E+00 0.06816505E-05    3
-0.03137459E-06 0.15772230E-10 0.15290676E+05 0.03869938E+03                   4
C6H               Kee686C   6H   1          G  0300.00   5000.00  1000.00      1
 0.11587352E+02 0.07295362E-01-0.02466008E-04 0.03407045E-08-0.14981855E-13    2
 0.10314481E+06-0.03172578E+03 0.04769848E+02 0.02457279E+00-0.07561252E-04    3
-0.14806908E-07 0.09768053E-10 0.10485231E+06 0.03241530E+02                   4
C6H2              Kee686C   6H   2          G  0300.00   5000.00  1000.00      1
 0.12756519E+02 0.08034381E-01-0.02618215E-04 0.03725060E-08-0.01878850E-12    2
 0.08075469E+06-0.04041262E+03 0.05751085E+02 0.02636719E+00-0.11667596E-04    3
-0.10714498E-07 0.08790297E-10 0.08262012E+06-0.04335532E+02                   4
C6H3              Kee387C   6H   3          G  0300.00   5000.00  1000.00      1
 0.12761181E+02 0.10385573E-01-0.03479192E-04 0.05109733E-08-0.02690965E-12    2
 0.07477706E+06-0.03891745E+03 0.05007089E+02 0.02692851E+00-0.05919865E-04    3
-0.15272335E-07 0.09408310E-10 0.07713200E+06 0.02225621E+02                   4
C6H5              Kee489C   6H   5          G  0300.00   4000.00  1000.00      1
 0.15775887E+02 0.09651109E-01-0.09429416E-05-0.05469111E-08 0.10265216E-12    2
 0.03302698E+06-0.06176280E+03 0.11435567E+00 0.03627324E+00 0.11582856E-05    3
-0.02196964E-06 0.08463556E-10 0.03836054E+06 0.02380117E+03                   4
C6H5(L)            82489C   6H   5          G  0300.00   4000.00  1000.00      1
 0.01721540e+03 0.08621068e-01-0.08221340e-05-0.04752164e-08 0.08844086e-12    2
 0.06385819e+06-0.06139128e+03 0.04854269e+02 0.03031659e+00 0.01742893e-05    3
-0.01811010e-06 0.07392511e-10 0.06798734e+06 0.05854935e+02                   4
C6H5O             Kee489C   6H   5O   1     G  0300.00   4000.00  1000.00      1
 0.01822638E+03 0.10039851E-01-0.09915668E-05-0.05672804E-08 0.10683716E-12    2
-0.02620846E+05-0.07361390E+03 0.11074965E+01 0.03956945E+00 0.08497295E-05    3
-0.02436311E-06 0.09650659E-10 0.03159672E+05 0.01973496E+03                   4
C6H5OH            Kee489C   6H   6O   1     G  0300.00   4000.00  1000.00      1
 0.01821632E+03 0.11424269E-01-0.10966843E-05-0.06427442E-08 0.11988930E-12    2
-0.02053664E+06-0.07304233E+03 0.13914556E+01 0.03931957E+00 0.01777096E-04    3
-0.02277673E-06 0.08309659E-10-0.14721809E+05 0.01917813E+03                   4
C6H6              Kee387C   6H   6          G  0300.00   5000.00  1000.00      1
 0.12910740E+02 0.01723296E+00-0.05024210E-04 0.05893497E-08-0.01947521E-12    2
 0.03664511E+05-0.05002699E+03-0.03138012E+02 0.04723103E+00-0.02962207E-04    3
-0.03262819E-06 0.01718691E-09 0.08890031E+05 0.03657573E+03                   4
C6H7              Kee489C   6H   7          G  0300.00   4000.00  1000.00      1
 0.01755221E+03 0.12270795E-01-0.11857424E-05-0.06959661E-08 0.13013259E-12    2
 0.16245813E+05-0.07166588E+03 0.04639166E+01 0.03975928E+00 0.02529095E-04    3
-0.02223792E-06 0.07557053E-10 0.02225169E+06 0.02235387E+03                   4
C10H8            Gardib8C  10H   8          G  0300.00   5000.00  1000.00      1
 0.19726501E+02 0.28167639E-01-0.96896429E-05 0.14654855E-08-0.80134955E-13    2
 0.85581797E+04-0.86023239E+02-0.46547480E+01 0.74611127E-01-0.53069607E-05    3
-0.54125859E-07 0.29066527E-10 0.16325324E+05 0.45005463E+02                   4
CH               Kee1286C   1H   1          G  0300.00   5000.00  1000.00      1
 0.02196223E+02 0.02340381E-01-0.07058201E-05 0.09007582E-09-0.03855040E-13    2
 0.07086723E+06 0.09178373E+02 0.03200202E+02 0.02072875E-01-0.05134431E-04    3
 0.05733890E-07-0.01955533E-10 0.07045259E+06 0.03331587E+02                   4
CH2CO            Kee1686C   2H   2O   1     G  0300.00   5000.00  1000.00      1
 0.06038817E+02 0.05804840E-01-0.01920953E-04 0.02794484E-08-0.14588676E-13    2
-0.08583402E+05-0.07657581E+02 0.02974970E+02 0.12118712E-01-0.02345045E-04    3
-0.06466685E-07 0.03905649E-10-0.07632636E+05 0.08673553E+02                   4
CH2O             Kee1286C   1H   2O   1     G  0300.00   5000.00  1000.00      1
 0.02995606E+02 0.06681321E-01-0.02628954E-04 0.04737153E-08-0.03212517E-12    2
-0.15320369E+05 0.06912572E+02 0.16527311E+01 0.12631439E-01-0.01888168E-03    3
 0.02050031E-06-0.08413237E-10-0.14865404E+05 0.13784820E+02                   4
CH2OH            Kee0186H   3C   1O   1     G  0250.00   4000.00  1000.00      1
 0.06327520E+02 0.03608270E-01-0.03201547E-05-0.01938750E-08 0.03509704E-12    2
-0.04474509E+05-0.08329365E+02 0.02862628E+02 0.10015273E-01-0.05285435E-05    3
-0.05138539E-07 0.02246041E-10-0.03349678E+05 0.10397938E+02                   4
CH3              Kee1286C   1H   3          G  0300.00   5000.00  1000.00      1
 0.02844051E+02 0.06137974E-01-0.02230345E-04 0.03785161E-08-0.02452159E-12    2
 0.16437809E+05 0.05452697E+02 0.02430442E+02 0.11124099E-01-0.01680220E-03    3
 0.16218288E-07-0.05864952E-10 0.16423781E+05 0.06789794E+02                   4
CH3O             Kee1686C   1H   3O   1     G  0300.00   3000.00  1000.00      1
 0.03770799E+02 0.07871497E-01-0.02656384E-04 0.03944431E-08-0.02112616E-12    2
 0.12783252E+03 0.02929575E+02 0.02106204E+02 0.07216595E-01 0.05338472E-04    3
-0.07377636E-07 0.02075610E-10 0.09786011E+04 0.13152177E+02                   4
CH3OH            Kee1686C   1H   4O   1     G  0300.00   5000.00  1000.00      1
 0.04029061E+02 0.09376593E-01-0.03050254E-04 0.04358793E-08-0.02224723E-12    2
-0.02615791E+06 0.02378195E+02 0.02660115E+02 0.07341508E-01 0.07170050E-04    3
-0.08793194E-07 0.02390570E-10-0.02535348E+06 0.11232631E+02                   4
CO               Kee1286C   1O   1          G  0300.00   5000.00  1000.00      1
 0.03025078E+02 0.14426885E-02-0.05630827E-05 0.10185813E-09-0.06910951E-13    2
-0.14268350E+05 0.06108217E+02 0.03262451E+02 0.15119409E-02-0.03881755E-04    3
 0.05581944E-07-0.02474951E-10-0.14310539E+05 0.04848897E+02                   4
CO2              Kee1286C   1O   2          G  0300.00   5000.00  1000.00      1
 0.04453623E+02 0.03140168E-01-0.12784105E-05 0.02393996E-08-0.16690333E-13    2
-0.04896696E+06-0.09553959E+01 0.02275724E+02 0.09922072E-01-0.10409113E-04    3
 0.06866686E-07-0.02117280E-10-0.04837314E+06 0.10188488E+02                   4
H                Kee0186H   1               G  0300.00   5000.00  1000.00      1
 0.02500000E+02 0.00000000E+00 0.00000000E+00 0.00000000E+00 0.00000000E+00    2
 0.02547162E+06-0.04601176E+01 0.02500000E+02 0.00000000E+00 0.00000000E+00    3
 0.00000000E+00 0.00000000E+00 0.02547162E+06-0.04601176E+01                   4
H2               Kee1286H   2               G  0300.00   5000.00  1000.00      1
 0.02991423E+02 0.07000644E-02-0.05633828E-06-0.09231578E-10 0.15827519E-14    2
-0.08350340E+04-0.13551101E+01 0.03298124E+02 0.08249441E-02-0.08143015E-05    3
-0.09475434E-09 0.04134872E-11-0.10125209E+04-0.03294094E+02                   4
H2C4O            Kee0189H   2C   4O   1     G  0300.00   4000.00  1000.00      1
 0.10268878E+02 0.04896164E-01-0.04885080E-05-0.02708566E-08 0.05107013E-12    2
 0.02346902E+06-0.02815985E+03 0.04810971E+02 0.13139988E-01 0.09865073E-05    3
-0.06120720E-07 0.16400028E-11 0.02545803E+06 0.02113424E+02                   4
H2CCCCH          Kee2489C   4H   3          G  0300.00   4000.00  1000.00      1
 0.11314095E+02 0.05014414E-01-0.05350444E-05-0.02825309E-08 0.05403279E-12    2
 0.05181211E+06-0.03062434E+03 0.06545799E+02 0.12424768E-01 0.05603226E-05    3
-0.05631141E-07 0.16652183E-11 0.05352502E+06-0.04264082E+02                   4
H2CCCCH2         Kee2489C   4H   4          G  0300.00   4000.00  1000.00      1
 0.10620828E+02 0.07199370E-01-0.06806234E-05-0.04021185E-08 0.07378498E-12    2
 0.03358797E+06-0.03193583E+03 0.03849007E+02 0.01713169E+00 0.16442703E-05    3
-0.07761590E-07 0.01947859E-10 0.03608372E+06 0.05732120E+02                   4
H2CCCH           Kee2489C   3H   3          G  0300.00   4000.00  1000.00      1
 0.08831047E+02 0.04357194E-01-0.04109066E-05-0.02368723E-08 0.04376520E-12    2
 0.03847419E+06-0.02177919E+03 0.04754199E+02 0.11080277E-01 0.02793323E-05    3
-0.05479212E-07 0.01949629E-10 0.03988883E+06 0.05854549E+01                   4
H2O              Kee0387H   2O   1          G  0300.00   5000.00  1000.00      1
 0.02672145E+02 0.03056293E-01-0.08730260E-05 0.12009964E-09-0.06391618E-13    2
-0.02989921E+06 0.06862817E+02 0.03386842E+02 0.03474982E-01-0.06354696E-04    3
 0.06968581E-07-0.02506588E-10-0.03020811E+06 0.02590232E+02                   4
H2O2             Kee0186H   2O   2          G  0300.00   5000.00  1000.00      1
 0.04573167E+02 0.04336136E-01-0.14746888E-05 0.02348903E-08-0.14316536E-13    2
-0.01800696E+06 0.05011369E+01 0.03388753E+02 0.06569226E-01-0.14850125E-06    3
-0.04625805E-07 0.02471514E-10-0.01766314E+06 0.06785363E+02                   4
HCCHCCH          Kee2489C   4H   3          G  0300.00   4000.00  1000.00      1
 0.10752738E+02 0.05381153E-01-0.05549637E-05-0.03052266E-08 0.05761740E-12    2
 0.06121419E+06-0.02973025E+03 0.04153881E+02 0.01726287E+00-0.02389374E-05    3
-0.10187000E-07 0.04340504E-10 0.06338070E+06 0.06036506E+02                   4
HCCO             Kee2387H   1C   2O   1     G  0300.00   4000.00  1000.00      1
 0.06758073E+02 0.02000400E-01-0.02027607E-05-0.10411318E-09 0.01965164E-12    2
 0.01901513E+06-0.09071262E+02 0.05047965E+02 0.04453478E-01 0.02268282E-05    3
-0.14820945E-08 0.02250741E-11 0.01965891E+06 0.04818439E+01                   4
HCCOH            Kee2387H   2C   2O   1     G  0300.00   4000.00  1000.00      1
 0.07328324E+02 0.03336416E-01-0.03024705E-05-0.01781106E-08 0.03245168E-12    2
 0.07598258E+05-0.14012140E+02 0.03899465E+02 0.09701075E-01-0.03119309E-05    3
-0.05537732E-07 0.02465732E-10 0.08701190E+05 0.04491874E+02                   4
HCO              Kee1286H   1C   1O   1     G  0300.00   5000.00  1000.00      1
 0.03557271E+02 0.03345572E-01-0.13350060E-05 0.02470572E-08-0.01713850E-12    2
 0.03916324E+05 0.05552299E+02 0.02898329E+02 0.06199146E-01-0.09623084E-04    3
 0.10898249E-07-0.04574885E-10 0.04159922E+05 0.08983614E+02                   4
HO2              Kee0387H   1O   2          G  0300.00   5000.00  1000.00      1
 0.04072191E+02 0.02131296E-01-0.05308145E-05 0.06112269E-09-0.02841164E-13    2
-0.15797270E+03 0.03476029E+02 0.02979963E+02 0.04996697E-01-0.03790997E-04    3
 0.02354192E-07-0.08089024E-11 0.01762273E+04 0.09222724E+02                   4
O                Kee0186O   1               G  0300.00   5000.00  1000.00      1
 0.02542059E+02-0.02755061E-03-0.03102803E-07 0.04551067E-10-0.04368051E-14    2
 0.02923080E+06 0.04920308E+02 0.02946428E+02-0.16381665E-02 0.02421031E-04    3
-0.16028431E-08 0.03890696E-11 0.02914764E+06 0.02963995E+02                   4
O2               Kee1386O   2               G  0300.00   5000.00  1000.00      1
 0.03697578E+02 0.06135197E-02-0.12588420E-06 0.01775281E-09-0.11364354E-14    2
-0.12339301E+04 0.03189165E+02 0.03212936E+02 0.11274864E-02-0.05756150E-05    3
 0.13138773E-08-0.08768554E-11-0.10052490E+04 0.06034737E+02                   4
OH               Kee1286O   1H   1          G  0300.00   5000.00  1000.00      1
 0.02882730E+02 0.10139743E-02-0.02276877E-05 0.02174683E-09-0.05126305E-14    2
 0.03886888E+05 0.05595712E+02 0.03637266E+02 0.01850910E-02-0.16761646E-05    3
 0.02387202E-07-0.08431442E-11 0.03606781E+05 0.13588605E+01                   4
CH2CHCCH2        Kee    C   4H   5          G   300.000  5000.000 1413.000     1
 1.11854536E+01 1.06049024E-02-3.42268950E-06 5.10812979E-10-2.88272523E-14    2
 3.24441710E+04-3.39237401E+01 1.05514961E+00 3.77996411E-02-3.15008221E-05    3
 1.36464976E-08-2.36025391E-12 3.55501864E+04 1.91307649E+01                   4
CH2CHCHCH        Kee    C   4H   5          G    300.000  5000.000 1413.000    1
 1.11854536E+01 1.06049024E-02-3.42268950E-06 5.10812979E-10-2.88272523E-14    2
 3.86847347E+04-3.39237401E+01 1.05514961E+00 3.77996411E-02-3.15008221E-05    3
 1.36464976E-08-2.36025391E-12 4.17907501E+04 1.91307649E+01                   4
C6H4OH            MOPAC C   6H   5O   1    0G   300.000  5000.000 1404.000     1
 1.45068436E+01 1.59404980E-02-5.37246333E-06 8.26250158E-10-4.76347968E-14    2
 9.52783213E+03-5.58395061E+01-3.09604127E+00 6.10439698E-02-4.99110690E-05    3
 2.08646723E-08-3.49237193E-12 1.51688735E+04 3.71626206E+01                   4
C8H8              EBG   C   8H   8    0    0G   300.000  5000.000 1397.000     1
 1.97218275E+01 2.13671373E-02-7.18301846E-06 1.10346973E-09-6.35885595E-14    2
 8.09327433E+03-8.32435075E+01-5.59026555E+00 8.59858562E-02-7.07697538E-05    3
 2.96387500E-08-4.96343461E-12 1.62297563E+04 5.05773921E+01                   4
C8H10             EBG   C   8H  10O   0    0G   300.000  5000.000 1390.000     1
 2.14713086E+01 2.49558342E-02-8.42478694E-06 1.29835947E-09-7.49993230E-14    2
-7.46898472E+03-9.36428065E+01-6.24730659E+00 8.99995431E-02-6.56895331E-05    3
 2.37336850E-08-3.37085410E-12 1.97071484E+03 5.48599202E+01                   4
C7H7              T08/90C   7H   7    0    0G   200.000  6000.000              1
 0.14043980E+02 0.23493873E-01-0.85375367E-05 0.13890841E-08-0.83614420E-13    2
 0.18564203E+05-0.51665589E+02 0.48111540E+00 0.38512832E-01 0.32861492E-04    3
-0.76972721E-07 0.35423068E-10 0.23307027E+05 0.23548820E+02                   4
C7H7O             EBG   C   7H   7O   1    0G   300.000  5000.000 1389.000     1
 2.08644385E+01 1.85115130E-02-6.34591221E-06 9.88320326E-10-5.75152427E-14    2
-8.39231428E+03-9.15798540E+01-3.73786936E+00 7.52967730E-02-5.47150593E-05    3
 1.89060939E-08-2.46715849E-12 2.67233477E+01 4.04727046E+01                   4
C7H7OH            EBG   C   7H   8O   1    0G   300.000  5000.000 1398.000     1
 2.05745245E+01 2.05513700E-02-6.88594427E-06 1.05580886E-09-6.07715527E-14    2
-2.54145704E+04-8.69178692E+01-4.48479735E+00 8.32792049E-02-6.68674735E-05    3
 2.70252364E-08-4.34410399E-12-1.72753716E+04 4.59408329E+01                   4
C10H7             mopac C  10H   7O   0    0G   300.000  5000.000 1431.000     1
 1.77174588E+01 2.67239869E-02-8.72730540E-06 1.31405429E-09-7.46517931E-14    2
 3.78635946E+04-7.55942936E+01-4.97706841E+00 7.81519562E-02-5.09523896E-05    3
 1.59157709E-08-1.79646453E-12 4.56870324E+04 4.64894159E+01                   4
N2                Kee286N   2               G  0300.00   5000.00  1000.00      1
 0.02926640E+02 0.14879768E-02-0.05684760E-05 0.10097038E-09-0.06753351E-13    2
-0.09227977E+04 0.05980528E+02 0.03298677E+02 0.14082404E-02-0.03963222E-04    3
 0.05641515E-07-0.02444854E-10-0.10208999E+04 0.03950372E+02                   4
C2H3               Kee87C   2H   3          G  0300.00   5000.00  1000.00      1
 0.05933468E+02 0.04017745E-01-0.03966739E-05-0.14412666E-09 0.02378643E-12    2
 0.03185434E+06-0.08530313E+02 0.02459276E+02 0.07371476E-01 0.02109872E-04    3
-0.13216421E-08-0.11847838E-11 0.03335225E+06 0.11556202E+02                   4
C8H6              A 6/83C   8H   6    0    0G   300.     3000.    1000.000     1
 0.15638086E+02 0.22068432E-01-0.80253111E-05 0.13065013E-08-0.78679279E-13    2
 0.32272867E+05-0.59610868E+02-0.87234720E+00 0.51839614E-01 0.66079738E-05    3
-0.55950961E-07 0.29284749E-10 0.37461628E+05 0.29096304E+02                   4
C12H9  BIPHENYL O-L12/84C 12.H  9.   0.   0.G   300.000  5000.00  1000.000     1
 0.23851303E 02 0.31960227E-01-0.11076719E-04 0.16847825E-08-0.92641173E-13    2
 0.40171297E 05-0.10270549E 03-0.31376228E 01 0.82217276E-01-0.40171444E-05    3
-0.60809782E-07 0.32074482E-10 0.48868754E 05 0.42730362E 02                   4
END
REACTIONS
 C6H5+C6H5=C12H10                              7.01E+15   -1.0     1470.0 ! 1
 C6H5+C6H6=C12H10+H                            1.00E+12     .0     7000.0 ! 2
 H2CCCH+C7H7=C10H8+2H                          6.03E+11     .0         .0 ! 3
 2C5H5=C10H8+H2                                4.30E+36   -6.3    45671.0 ! 4
 HCCHCCH+C6H5=C10H8                            3.18E+23   -3.2     4220.0 ! 5
 HCCHCCH+C6H5=C10H7+H                          2.00E-10    7.1     1560.0 ! 6
 C10H8+OH=C10H7+H2O                            2.10E+13     .0     4600.0 ! 7
 C10H7+H=C10H8                                 6.65E+15    -.1      560.0 ! 8
 C10H8+C2H3=C10H7+C2H4                         5.00E+13     .0    16000.0 ! 9
 C10H8+C2H=C10H7+C2H2                          5.00E+13     .0    16000.0 ! 10
 C10H8+H=C10H7+H2                              2.50E+14     .0    16000.0 ! 11
 C8H10+OH=C8H8+H2O+H                           8.34E+12     .0     2583.0 ! 12
 C8H10+H=C8H8+H2+H                             8.00E+13     .0     8235.0 ! 13
 C8H10+O2=C8H8+HO2+H                           2.00E+14     .0    41400.0 ! 14
 C7H7+CH3=C8H10                                3.14E+18   -1.8     2340.0 ! 15
 C7H7+CH3=C8H8+H2                              2.02E-11    7.2     8170.0 ! 16
 C8H10=C8H8+H2                                 5.01E+12     .0    64000.0 ! 17
 C8H10+H=C6H6+C2H5                             1.20E+13     .0     5100.0 ! 18
 C6H5+C2H3=C8H8                                1.06E+26   -4.0     5250.0 ! 19