/*--------------------------------*- C++ -*----------------------------------*\
| =========                 |                                                 |
| \\      /  F ield         | OpenFOAM: The Open Source CFD Toolbox           |
|  \\    /   O peration     | Version:  1.7.1                                 |
|   \\  /    A nd           | Web:      www.OpenFOAM.com                      |
|    \\/     M anipulation  |                                                 |
\*---------------------------------------------------------------------------*/
FoamFile
{
    version     2.0;
    format      ascii;
    class       dictionary;
    object      fvSchemes;
}
// * * * * * * * * * * * * * * * * * * * * * * * * * * * * * * * * * * * * * //

ddtSchemes
{
    default steadyState;
}

gradSchemes
{
    default         Gauss linear;
}

divSchemes
{
    default         none;
    div(phi,U)      Gauss limitedLinear 0.2;
    div(phi,h)      Gauss limitedLinear 0.2;
    div(phi,k)      Gauss limitedLinear 0.2;
    div(phi,epsilon) Gauss limitedLinear 0.2;
    div(phi,omega) Gauss limitedLinear 0.2;
    div((muEff*dev2(grad(U).T()))) Gauss linear;
}

laplacianSchemes
{
    default         none;
    laplacian(muEff,U) Gauss linear uncorrected;
    laplacian((rho*(1|A(U))),p_rgh) Gauss linear uncorrected;
    laplacian(alphaEff,h) Gauss linear uncorrected;
    laplacian(DkEff,k) Gauss linear uncorrected;
    laplacian(DepsilonEff,epsilon) Gauss linear uncorrected;
    laplacian(DomegaEff,omega) Gauss linear uncorrected;
}

interpolationSchemes
{
    default         linear;
}

snGradSchemes
{
    default         uncorrected;
}

fluxRequired
{
    default         no;
    p_rgh;
}


// ************************************************************************* //
