/*---------------------------------------------------------------------------*\
| =========                 |                                                 |
| \\      /  F ield         | OpenFOAM: The Open Source CFD Toolbox           |
|  \\    /   O peration     | Version:  1.6                                   |
|   \\  /    A nd           | Web:      http://www.openfoam.org               |
|    \\/     M anipulation  |                                                 |
\*---------------------------------------------------------------------------*/

FoamFile
{
    version         2.0;
    format          ascii;

    root            "";
    case            "";
    instance        "";
    local           "";

    class           dictionary;
    object          blockMeshDict;
}

// * * * * * * * * * * * * * * * * * * * * * * * * * * * * * * * * * * * * * //

convertToMeters 0.01;

vertices
(
    (-5 -4 -4)
    (5 -4 -4)
    (5 4 -4)
    (-5 4 -4)
    (-5 -4 4)
    (5 -4 4)
    (5 4 4)
    (-5 4 4)
);

blocks
(
    hex (0 1 2 3 4 5 6 7) (20 16 16) simpleGrading (1 1 1)
);

patches
(
    patch
    outlet
    (
        (1 2 6 5)
    )

    patch
    inlet
    (
        (0 4 7 3)
    )

    patch
    sides
    (
        (2 3 7 6)
        (0 1 5 4)
        (4 5 6 7)
        (0 3 2 1)
    )
)

mergePatchPairs
(
);


// ************************************************************************* //
