/*--------------------------------*- C++ -*----------------------------------*\
| =========                 |                                                 |
| \\      /  F ield         | OpenFOAM: The Open Source CFD Toolbox           |
|  \\    /   O peration     | Version:  1.7.x                                 |
|   \\  /    A nd           | Web:      www.OpenFOAM.com                      |
|    \\/     M anipulation  |                                                 |
\*---------------------------------------------------------------------------*/
FoamFile
{
    version     2.0;
    format      ascii;
    class       polyBoundaryMesh;
    location    "constant/polyMesh";
    object      boundary;
}
// * * * * * * * * * * * * * * * * * * * * * * * * * * * * * * * * * * * * * //

5
(
    leftWall
    {
        type            wall;
        nFaces          50;
        startFace       4432;
    }
    rightWall
    {
        type            wall;
        nFaces          50;
        startFace       4482;
    }
    lowerWall
    {
        type            wall;
        nFaces          62;
        startFace       4532;
    }
    atmosphere
    {
        type            patch;
        nFaces          46;
        startFace       4594;
    }
    defaultFaces
    {
        type            empty;
        nFaces          4536;
        startFace       4640;
    }
)

// ************************************************************************* //
