/*--------------------------------*- C++ -*----------------------------------*\
| =========                 |                                                 |
| \\      /  F ield         | OpenFOAM: The Open Source CFD Toolbox           |
|  \\    /   O peration     | Version:  1.6                                   |
|   \\  /    A nd           | Web:      www.OpenFOAM.org                      |
|    \\/     M anipulation  |                                                 |
\*---------------------------------------------------------------------------*/
FoamFile
{
    version     2.0;
    format      ascii;
    class       polyBoundaryMesh;
    location    "constant/polyMesh";
    object      boundary;
}
// * * * * * * * * * * * * * * * * * * * * * * * * * * * * * * * * * * * * * //

5
(
    top
    {
        type            patch;
        physicalType    inlet;
        nFaces          60;
        startFace       3510;
    }
    inlet
    {
        type            patch;
        physicalType    supersonicInlet;
        nFaces          30;
        startFace       3570;
    }
    outlet
    {
        type            patch;
        physicalType    extrapolatedOutlet;
        nFaces          30;
        startFace       3600;
    }
    bottom
    {
        type            symmetryPlane;
        physicalType    symmetryPlane;
        nFaces          60;
        startFace       3630;
    }
    frontAndBack
    {
        type            empty;
        physicalType    empty;
        nFaces          3600;
        startFace       3690;
    }
)

// ************************************************************************* //
