/*--------------------------------*- C++ -*----------------------------------*\
| =========                 |                                                 |
| \\      /  F ield         | OpenFOAM: The Open Source CFD Toolbox           |
|  \\    /   O peration     | Version:  1.7.1                                 |
|   \\  /    A nd           | Web:      www.OpenFOAM.com                      |
|    \\/     M anipulation  |                                                 |
\*---------------------------------------------------------------------------*/
FoamFile
{
    version     2.0;
    format      ascii;
    class       dictionary;
    location    "system";
    object      controlDict;
}
// * * * * * * * * * * * * * * * * * * * * * * * * * * * * * * * * * * * * * //

application     dsmcFoam;

startFrom       latestTime;

startTime       0;

stopAt          endTime;

endTime         0.02;

deltaT          2e-6;

writeControl    runTime;

writeInterval   1e-3;

purgeWrite      0;

writeFormat     ascii;

writePrecision  10;

writeCompression uncompressed;

timeFormat      general;

timePrecision   6;

runTimeModifiable true;

adjustTimeStep  no;

functions
{
    dsmcFields1
    {
        type            dsmcFields;
        functionObjectLibs ( "libutilityFunctionObjects.so" );
        enabled         true;
        outputControl   outputTime;
    }

    fieldAverage1
    {
        type            fieldAverage;
        functionObjectLibs ( "libfieldFunctionObjects.so" );
        outputControl   outputTime;
        resetOnOutput   off;

        fields
        (
            rhoN
            {
                mean        on;
                prime2Mean  off;
                base        time;
            }
            rhoM
            {
                mean        on;
                prime2Mean  off;
                base        time;
            }
            dsmcRhoN
            {
                mean        on;
                prime2Mean  off;
                base        time;
            }
            momentum
            {
                mean        on;
                prime2Mean  off;
                base        time;
            }
            linearKE
            {
                mean        on;
                prime2Mean  off;
                base        time;
            }
            internalE
            {
                mean        on;
                prime2Mean  off;
                base        time;
            }
            iDof
            {
                mean        on;
                prime2Mean  off;
                base        time;
            }
            q
            {
                mean        on;
                prime2Mean  off;
                base        time;
            }
            fD
            {
                mean        on;
                prime2Mean  off;
                base        time;
            }
        );
    }

    forces1
    {
        type            forces;
        enabled         true;
        functionObjectLibs ( "libforces.so" );
        outputControl   outputTime;
        patches         ( obstacle );
        directForceDensity true;
        fDName          fDMean;
        CofR            ( 0 0 0 );
        log             on;
    }
}

// ************************************************************************* //
