/*--------------------------------*- C++ -*----------------------------------*\
| =========                 |                                                 |
| \\      /  F ield         | OpenFOAM: The Open Source CFD Toolbox           |
|  \\    /   O peration     | Version:  1.6.x                                 |
|   \\  /    A nd           | Web:      http://www.OpenFOAM.org               |
|    \\/     M anipulation  |                                                 |
\*---------------------------------------------------------------------------*/
FoamFile
{
    version     2.0;
    format      ascii;
    class       dictionary;
    object      blockMeshDict;
}

// * * * * * * * * * * * * * * * * * * * * * * * * * * * * * * * * * * * * * //

convertToMeters 1;

vertices
(
    (-2.5 -4.8 -0.1)
    ( 10  -4.8 -0.1)
    ( 10   4.8 -0.1)
    (-2.5  4.8 -0.1)
    (-2.5 -4.8  0.1)
    ( 10  -4.8  0.1)
    ( 10   4.8  0.1)
    (-2.5  4.8  0.1)
);

blocks
(
    hex (0 1 2 3 4 5 6 7) (75 48 1) simpleGrading (1 1 1)
);

edges
(
);

patches
(
    patch topAndBottom
    (
        (3 7 6 2)
        (1 5 4 0)
    )

    patch inlet
    (
        (0 4 7 3)
    )

    patch outlet
    (
        (2 6 5 1)
    )

    empty front
    (
        (4 5 6 7)
    )

    empty back
    (
        (0 3 2 1)
    )
);

mergePatchPairs
(
);

// ************************************************************************* //
