/*--------------------------------*- C++ -*----------------------------------*\
| =========                 |                                                 |
| \\      /  F ield         | OpenFOAM: The Open Source CFD Toolbox           |
|  \\    /   O peration     | Version:  1.7.1                                 |
|   \\  /    A nd           | Web:      www.OpenFOAM.com                      |
|    \\/     M anipulation  |                                                 |
\*---------------------------------------------------------------------------*/
FoamFile
{
    version     2.0;
    format      ascii;
    class       dictionary;
    location    "constant";
    object      massSourcesProperties;
}
// * * * * * * * * * * * * * * * * * * * * * * * * * * * * * * * * * * * * * //

(
    source1
    {
        active          true;
        timeStart       0.2;
        duration        2.0;
        selectionMode   points;
        volumeMode      absolute;
        fieldData
        (
            (H2O 1e-4) // kg/s
        );
        points
        (
            (2.75 0.5 0)
        );
    }
);


// ************************************************************************* //
